       XFOIL         Version 6.99
  
 Calculated polar for: NACA 2409 Airfoil M=2.75% P=40.0% T=9.0%         
  
 1 1 Reynolds number fixed          Mach number fixed         
  
 xtrf =   0.05 (top)        0.05 (bottom)  
 Mach =   0.000     Re =     0.333 e 6     Ncrit =   5.000  5.000
  
   alpha    CL        CD       CDp       CM     Top_Xtr  Bot_Xtr  Top_Itr  Bot_Itr
  ------ -------- --------- --------- -------- -------- -------- -------- --------
   -7.750  -0.5185   0.03124   0.01651  -0.0704   0.0500   0.0213  86.1870 109.7896
  -7.500  -0.4998   0.02788   0.01267  -0.0703   0.0500   0.0222  86.1870 109.9878
  -7.250  -0.4766   0.02677   0.01185  -0.0702   0.0500   0.0232  86.1870 110.1998
  -7.000  -0.4526   0.02579   0.01090  -0.0701   0.0500   0.0247  86.1870 110.5097
  -6.750  -0.4286   0.02423   0.00919  -0.0698   0.0500   0.0263  86.1870 110.8428
  -6.500  -0.4042   0.02278   0.00774  -0.0695   0.0500   0.0274  86.1870 111.0721
  -6.250  -0.3791   0.02187   0.00702  -0.0693   0.0500   0.0287  86.1870 111.3127
  -6.000  -0.3536   0.02099   0.00618  -0.0690   0.0500   0.0305  86.1870 111.6457
  -5.750  -0.3279   0.02019   0.00542  -0.0688   0.0500   0.0330  86.1870 112.1152
  -5.500  -0.3020   0.01960   0.00497  -0.0686   0.0500   0.0356  86.1870 112.5665
  -5.250  -0.2759   0.01888   0.00426  -0.0683   0.0500   0.0382  86.1870 113.0202
  -5.000  -0.2499   0.01829   0.00386  -0.0681   0.0500   0.0411  86.1870 113.4909
  -4.750  -0.2235   0.01779   0.00345  -0.0679   0.0500   0.0455  86.1870 114.1874
  -4.500  -0.1971   0.01733   0.00306  -0.0677   0.0500   0.0500  86.1870 114.8746
  -4.250  -0.1707   0.01676   0.00254  -0.0674   0.0500   0.0500  86.1870 114.8746
  -4.000  -0.1438   0.01639   0.00219  -0.0672   0.0500   0.0500  86.1870 114.8746
  -3.750  -0.1167   0.01615   0.00195  -0.0670   0.0500   0.0500  86.1870 114.8746
  -3.500  -0.0896   0.01597   0.00176  -0.0668   0.0500   0.0500  86.1870 114.8746
  -3.250  -0.0624   0.01583   0.00161  -0.0667   0.0500   0.0500  86.1870 114.8746
  -3.000  -0.0351   0.01571   0.00148  -0.0665   0.0500   0.0500  86.1870 114.8746
  -2.750  -0.0079   0.01562   0.00138  -0.0664   0.0500   0.0500  86.1870 114.8746
  -2.500   0.0194   0.01554   0.00130  -0.0663   0.0500   0.0500  86.1870 114.8746
  -2.250   0.0466   0.01548   0.00123  -0.0661   0.0500   0.0500  86.1870 114.8746
  -2.000   0.0739   0.01543   0.00117  -0.0660   0.0500   0.0500  86.1870 114.8746
  -1.750   0.1012   0.01540   0.00112  -0.0659   0.0500   0.0500  86.1870 114.8746
  -1.500   0.1284   0.01537   0.00109  -0.0657   0.0500   0.0500  86.1870 114.8746
  -1.250   0.1556   0.01536   0.00106  -0.0656   0.0500   0.0500  86.1870 114.8746
  -1.000   0.1828   0.01536   0.00104  -0.0655   0.0500   0.0500  86.1870 114.8746
  -0.750   0.2100   0.01536   0.00103  -0.0653   0.0500   0.0500  86.1870 114.8746
  -0.500   0.2372   0.01538   0.00103  -0.0652   0.0500   0.0500  86.1870 114.8746
  -0.250   0.2643   0.01540   0.00104  -0.0650   0.0500   0.0500  86.1870 114.8746
   0.000   0.2914   0.01544   0.00105  -0.0649   0.0500   0.0500  86.1870 114.8746
   0.250   0.3185   0.01548   0.00107  -0.0647   0.0500   0.0500  86.1870 114.8746
   0.500   0.3455   0.01553   0.00109  -0.0646   0.0500   0.0500  86.1870 114.8746
   0.750   0.3725   0.01559   0.00112  -0.0644   0.0500   0.0500  86.1870 114.8746
   1.000   0.3995   0.01565   0.00116  -0.0643   0.0500   0.0500  86.1870 114.8746
   1.250   0.4264   0.01573   0.00120  -0.0641   0.0500   0.0500  86.1870 114.8746
   1.500   0.4532   0.01581   0.00125  -0.0639   0.0500   0.0500  86.1870 114.8746
   1.750   0.4800   0.01590   0.00130  -0.0637   0.0500   0.0500  86.1870 114.8746
   2.000   0.5067   0.01601   0.00136  -0.0635   0.0500   0.0500  86.1870 114.8746
   2.250   0.5333   0.01611   0.00142  -0.0633   0.0500   0.0500  86.1870 114.8746
   2.500   0.5599   0.01623   0.00150  -0.0631   0.0500   0.0500  86.1870 114.8746
   2.750   0.5864   0.01636   0.00157  -0.0629   0.0500   0.0500  86.1870 114.8746
   3.000   0.6128   0.01650   0.00166  -0.0626   0.0500   0.0500  86.1870 114.8746
   3.250   0.6391   0.01664   0.00175  -0.0624   0.0500   0.0500  86.1870 114.8746
   3.500   0.6653   0.01680   0.00184  -0.0621   0.0500   0.0500  86.1870 114.8746
   3.750   0.6914   0.01697   0.00195  -0.0618   0.0500   0.0500  86.1870 114.8746
   4.000   0.7174   0.01714   0.00206  -0.0615   0.0500   0.0500  86.1870 114.8746
   4.250   0.7433   0.01733   0.00218  -0.0612   0.0500   0.0500  86.1870 114.8746
   4.500   0.7690   0.01753   0.00231  -0.0609   0.0500   0.0500  86.1870 114.8746
   4.750   0.7946   0.01775   0.00245  -0.0606   0.0500   0.0500  86.1870 114.8746
   5.000   0.8200   0.01798   0.00260  -0.0602   0.0500   0.0500  86.1870 114.8746
   5.250   0.8453   0.01822   0.00276  -0.0598   0.0500   0.0500  86.1870 114.8746
   5.500   0.8704   0.01848   0.00293  -0.0593   0.0500   0.0500  86.1870 114.8746
   5.750   0.8953   0.01876   0.00312  -0.0589   0.0500   0.0500  86.1870 114.8746
   6.000   0.9199   0.01906   0.00333  -0.0584   0.0500   0.0500  86.1870 114.8746
   6.250   0.9442   0.01938   0.00356  -0.0578   0.0500   0.0500  86.1870 114.8746
   6.500   0.9682   0.01974   0.00381  -0.0572   0.0500   0.0500  86.1870 114.8746
   6.750   0.9917   0.02015   0.00411  -0.0565   0.0500   0.0500  86.1870 114.8746
   7.000   1.0143   0.02066   0.00448  -0.0557   0.0500   0.0500  86.1870 114.8746
   7.250   1.0352   0.02136   0.00497  -0.0546   0.0487   0.0500  86.3804 114.8746
   7.500   1.0547   0.02216   0.00548  -0.0534   0.0428   0.0500  87.2615 114.8746
   7.750   1.0733   0.02300   0.00600  -0.0521   0.0381   0.0500  88.0067 114.8746
   8.000   1.0922   0.02380   0.00655  -0.0508   0.0346   0.0500  88.6116 114.8746
   8.250   1.1086   0.02481   0.00718  -0.0493   0.0322   0.0500  89.0218 114.8746
   8.500   1.1259   0.02571   0.00782  -0.0478   0.0298   0.0500  89.4713 114.8746
   8.750   1.1422   0.02666   0.00842  -0.0464   0.0276   0.0500  89.8781 114.8746
   9.000   1.1574   0.02772   0.00914  -0.0447   0.0257   0.0500  90.2465 114.8746
   9.250   1.1720   0.02882   0.00990  -0.0430   0.0242   0.0500  90.5492 114.8746
   9.500   1.1855   0.02997   0.01067  -0.0412   0.0231   0.0500  90.7814 114.8746
   9.750   1.1958   0.03126   0.01149  -0.0390   0.0222   0.0500  90.9593 114.8746
  10.000   1.2065   0.03265   0.01247  -0.0368   0.0215   0.0500  91.1310 114.8746
  10.250   1.2185   0.03407   0.01353  -0.0349   0.0205   0.0500  91.3476 114.8746
  10.500   1.2297   0.03544   0.01455  -0.0331   0.0195   0.0500  91.5798 114.8746
  10.750   1.2397   0.03677   0.01552  -0.0313   0.0186   0.0500  91.7832 114.8746
  11.000   1.2479   0.03829   0.01656  -0.0296   0.0179   0.0500  91.9475 114.8746
  11.250   1.2557   0.04014   0.01800  -0.0278   0.0172   0.0500  92.1024 114.8746
  11.500   1.2625   0.04220   0.01966  -0.0260   0.0167   0.0500  92.2332 114.8746
  11.750   1.2672   0.04443   0.02149  -0.0243   0.0162   0.0500  92.3547 114.8746
  12.000   1.2698   0.04684   0.02349  -0.0226   0.0158   0.0500  92.4613 114.8746
  12.250   1.2701   0.04943   0.02567  -0.0211   0.0154   0.0500  92.5521 114.8746
  12.500   1.2684   0.05224   0.02807  -0.0199   0.0151   0.0500  92.6285 114.8746
  12.750   1.2647   0.05530   0.03072  -0.0190   0.0149   0.0500  92.6920 114.8746
  13.000   1.2592   0.05866   0.03367  -0.0185   0.0147   0.0500  92.7447 114.8746
  13.250   1.2518   0.06237   0.03698  -0.0184   0.0145   0.0500  92.7879 114.8746
  13.500   1.2424   0.06649   0.04072  -0.0188   0.0144   0.0500  92.8223 114.8746
  13.750   1.2311   0.07110   0.04500  -0.0199   0.0143   0.0500  92.8489 114.8746
  14.000   1.2177   0.07629   0.04991  -0.0215   0.0142   0.0500  92.8684 114.8746
  14.250   1.2017   0.08214   0.05561  -0.0239   0.0142   0.0500  92.8795 114.8746
  14.500   1.1829   0.08887   0.06234  -0.0271   0.0142   0.0500  92.8821 114.8746
  14.750   1.1604   0.09685   0.07061  -0.0314   0.0142   0.0500  92.8727 114.8746
  15.000   1.1312   0.10697   0.08155  -0.0374   0.0143   0.0500  92.8418 114.8746

  

