       XFOIL         Version 6.99
  
 Calculated polar for: NACA 5409 Airfoil M=5.9% P=40.0% T=9.0%         
  
 1 1 Reynolds number fixed          Mach number fixed         
  
 xtrf =   0.050 (top)        0.050 (bottom)  
 Mach =   0.000     Re =     0.330 e 6     Ncrit =   5.000  5.000
  
   alpha    CL        CD       CDp       CM     Top_Xtr  Bot_Xtr  Top_Itr  Bot_Itr
  ------ -------- --------- --------- -------- -------- -------- -------- --------
 -11.500  -0.2595   0.12827   0.11959  -0.0522   0.0500   0.0162  85.7073 107.9768
 -11.250  -0.2535   0.12496   0.11592  -0.0536   0.0500   0.0162  85.7073 107.9800
 -11.000  -0.2474   0.12163   0.11231  -0.0551   0.0500   0.0162  85.7073 107.9819
 -10.750  -0.2412   0.11832   0.10881  -0.0564   0.0500   0.0162  85.7073 107.9817
 -10.500  -0.2345   0.11506   0.10554  -0.0576   0.0500   0.0162  85.7073 107.9756
 -10.000  -0.2172   0.10957   0.10126  -0.0585   0.0500   0.0144  85.7073 107.5140
  -9.750  -0.2117   0.10610   0.09763  -0.0600   0.0500   0.0139  85.7073 107.3772
  -9.500  -0.2062   0.10267   0.09401  -0.0615   0.0500   0.0137  85.7073 107.3081
  -9.250  -0.1996   0.09957   0.09076  -0.0630   0.0500   0.0138  85.7073 107.3462
  -9.000  -0.1922   0.09674   0.08778  -0.0644   0.0500   0.0146  85.7073 107.5538
  -8.750  -0.1861   0.09347   0.08427  -0.0662   0.0500   0.0153  85.7073 107.7365
  -8.500  -0.1801   0.09017   0.08084  -0.0679   0.0500   0.0154  85.7073 107.7595
  -8.250  -0.1738   0.08700   0.07763  -0.0696   0.0500   0.0151  85.7073 107.6798
  -8.000  -0.1678   0.08368   0.07426  -0.0714   0.0500   0.0148  85.7073 107.6090
  -7.750  -0.1626   0.08027   0.07080  -0.0735   0.0500   0.0146  85.7073 107.5597
  -7.500  -0.1587   0.07696   0.06743  -0.0757   0.0500   0.0145  85.7073 107.5325
  -7.250  -0.1495   0.07293   0.06332  -0.0799   0.0500   0.0145  85.7073 107.5315
  -7.000  -0.1376   0.06838   0.05868  -0.0853   0.0500   0.0146  85.7073 107.5619
  -6.750  -0.1221   0.06312   0.05332  -0.0921   0.0500   0.0149  85.7073 107.6250
  -6.500  -0.1017   0.05616   0.04618  -0.1018   0.0500   0.0152  85.7073 107.7239
  -6.250  -0.0572   0.02174   0.00965  -0.1383   0.0500   0.0175  85.7073 108.3071
  -6.000  -0.0301   0.02041   0.00818  -0.1389   0.0500   0.0183  85.7073 108.4865
  -5.750  -0.0028   0.01921   0.00681  -0.1394   0.0500   0.0192  85.7073 108.7048
  -5.500   0.0247   0.01823   0.00565  -0.1396   0.0500   0.0201  85.7073 108.9285
  -5.250   0.0520   0.01748   0.00493  -0.1398   0.0500   0.0210  85.7073 109.1312
  -5.000   0.0793   0.01710   0.00460  -0.1399   0.0500   0.0222  85.7073 109.3952
  -4.750   0.1067   0.01671   0.00415  -0.1400   0.0500   0.0239  85.7073 109.7756
  -4.500   0.1342   0.01622   0.00364  -0.1400   0.0500   0.0254  85.7073 110.0893
  -4.250   0.1616   0.01587   0.00335  -0.1401   0.0500   0.0269  85.7073 110.3831
  -4.000   0.1892   0.01556   0.00301  -0.1400   0.0500   0.0288  85.7073 110.7585
  -3.750   0.2166   0.01526   0.00274  -0.1400   0.0500   0.0311  85.7073 111.1903
  -3.500   0.2441   0.01508   0.00257  -0.1400   0.0500   0.0340  85.7073 111.7309
  -3.250   0.2715   0.01485   0.00236  -0.1400   0.0500   0.0369  85.7073 112.2301
  -3.000   0.2990   0.01468   0.00219  -0.1400   0.0500   0.0403  85.7073 112.8151
  -2.750   0.3264   0.01454   0.00208  -0.1399   0.0500   0.0448  85.7073 113.5377
  -2.500   0.3537   0.01441   0.00197  -0.1399   0.0500   0.0499  85.7073 114.3168
  -2.250   0.3812   0.01429   0.00180  -0.1398   0.0500   0.0500  85.7073 114.3344
  -2.000   0.4085   0.01424   0.00170  -0.1397   0.0500   0.0500  85.7073 114.3344
  -1.750   0.4358   0.01423   0.00164  -0.1395   0.0500   0.0500  85.7073 114.3344
  -1.500   0.4629   0.01424   0.00161  -0.1394   0.0500   0.0500  85.7073 114.3344
  -1.250   0.4900   0.01426   0.00159  -0.1393   0.0500   0.0500  85.7073 114.3344
  -1.000   0.5170   0.01430   0.00159  -0.1391   0.0500   0.0500  85.7073 114.3344
  -0.750   0.5439   0.01435   0.00159  -0.1389   0.0500   0.0500  85.7073 114.3344
  -0.500   0.5707   0.01441   0.00161  -0.1388   0.0500   0.0500  85.7073 114.3344
  -0.250   0.5975   0.01448   0.00163  -0.1386   0.0500   0.0500  85.7073 114.3344
   0.000   0.6241   0.01455   0.00166  -0.1384   0.0500   0.0500  85.7073 114.3344
   0.250   0.6507   0.01464   0.00169  -0.1382   0.0500   0.0500  85.7073 114.3344
   0.500   0.6772   0.01473   0.00173  -0.1380   0.0500   0.0500  85.7073 114.3344
   0.750   0.7036   0.01483   0.00178  -0.1378   0.0500   0.0500  85.7073 114.3344
   1.000   0.7300   0.01493   0.00183  -0.1375   0.0500   0.0500  85.7073 114.3344
   1.250   0.7562   0.01505   0.00189  -0.1373   0.0500   0.0500  85.7073 114.3344
   1.500   0.7823   0.01517   0.00195  -0.1370   0.0500   0.0500  85.7073 114.3344
   1.750   0.8082   0.01530   0.00202  -0.1367   0.0500   0.0500  85.7073 114.3344
   2.000   0.8341   0.01544   0.00209  -0.1364   0.0500   0.0500  85.7073 114.3344
   2.250   0.8598   0.01558   0.00216  -0.1361   0.0500   0.0500  85.7073 114.3344
   2.500   0.8854   0.01573   0.00224  -0.1358   0.0500   0.0500  85.7073 114.3344
   2.750   0.9108   0.01589   0.00232  -0.1354   0.0500   0.0500  85.7073 114.3344
   3.000   0.9361   0.01606   0.00240  -0.1350   0.0500   0.0500  85.7073 114.3344
   3.250   0.9613   0.01623   0.00249  -0.1346   0.0500   0.0500  85.7073 114.3344
   3.500   0.9862   0.01641   0.00259  -0.1342   0.0500   0.0500  85.7073 114.3344
   3.750   1.0110   0.01660   0.00268  -0.1337   0.0500   0.0500  85.7073 114.3344
   4.000   1.0356   0.01680   0.00279  -0.1333   0.0500   0.0500  85.7073 114.3344
   4.250   1.0599   0.01701   0.00289  -0.1327   0.0500   0.0500  85.7073 114.3344
   4.500   1.0841   0.01723   0.00300  -0.1322   0.0500   0.0500  85.7073 114.3344
   4.750   1.1079   0.01746   0.00312  -0.1316   0.0500   0.0500  85.7073 114.3344
   5.000   1.1316   0.01769   0.00324  -0.1310   0.0500   0.0500  85.7073 114.3344
   5.250   1.1549   0.01794   0.00336  -0.1303   0.0500   0.0500  85.7073 114.3344
   5.500   1.1779   0.01820   0.00349  -0.1296   0.0500   0.0500  85.7073 114.3344
   5.750   1.2006   0.01847   0.00363  -0.1288   0.0500   0.0500  85.7073 114.3344
   6.000   1.2229   0.01875   0.00377  -0.1279   0.0500   0.0500  85.7073 114.3344
   6.250   1.2448   0.01905   0.00392  -0.1270   0.0500   0.0500  85.7073 114.3344
   6.500   1.2663   0.01936   0.00408  -0.1261   0.0500   0.0500  85.7073 114.3344
   6.750   1.2871   0.01968   0.00424  -0.1250   0.0500   0.0500  85.7073 114.3344
   7.000   1.3064   0.02002   0.00441  -0.1236   0.0500   0.0500  85.7073 114.3344
   7.250   1.3247   0.02037   0.00458  -0.1221   0.0500   0.0500  85.7073 114.3344
   7.500   1.3434   0.02076   0.00479  -0.1207   0.0500   0.0500  85.7073 114.3344
   7.750   1.3621   0.02118   0.00502  -0.1193   0.0500   0.0500  85.7073 114.3344
   8.000   1.3803   0.02164   0.00527  -0.1178   0.0500   0.0500  85.7073 114.3344
   8.250   1.3979   0.02214   0.00555  -0.1163   0.0500   0.0500  85.7073 114.3344
   8.500   1.4116   0.02289   0.00597  -0.1143   0.0444   0.0500  86.5313 114.3344
   8.750   1.4229   0.02381   0.00650  -0.1121   0.0372   0.0500  87.6568 114.3344
   9.000   1.4340   0.02475   0.00705  -0.1099   0.0322   0.0500  88.5158 114.3344
   9.250   1.4442   0.02576   0.00765  -0.1076   0.0284   0.0500  89.2087 114.3344
   9.500   1.4542   0.02682   0.00830  -0.1055   0.0252   0.0500  89.8170 114.3344
   9.750   1.4638   0.02793   0.00899  -0.1033   0.0229   0.0500  90.2906 114.3344
  10.000   1.4727   0.02912   0.00975  -0.1012   0.0210   0.0500  90.6891 114.3344
  10.250   1.4788   0.03057   0.01069  -0.0990   0.0196   0.0500  91.0005 114.3344
  10.500   1.4870   0.03191   0.01157  -0.0971   0.0185   0.0500  91.2622 114.3344
  10.750   1.4937   0.03340   0.01258  -0.0951   0.0174   0.0500  91.5202 114.3344
  11.000   1.4993   0.03504   0.01370  -0.0932   0.0164   0.0500  91.7578 114.3344
  11.250   1.5016   0.03704   0.01509  -0.0913   0.0155   0.0500  91.9729 114.3344
  11.500   1.5064   0.03887   0.01640  -0.0896   0.0148   0.0500  92.1643 114.3344
  11.750   1.5108   0.04078   0.01778  -0.0881   0.0140   0.0500  92.3750 114.3344
  12.000   1.5145   0.04283   0.01927  -0.0866   0.0133   0.0500  92.5670 114.3344
  12.250   1.5170   0.04507   0.02091  -0.0853   0.0127   0.0500  92.7187 114.3344
  12.500   1.5176   0.04756   0.02277  -0.0840   0.0123   0.0500  92.8421 114.3344
  12.750   1.5152   0.05045   0.02497  -0.0828   0.0119   0.0500  92.9528 114.3344
  13.000   1.5133   0.05338   0.02722  -0.0817   0.0116   0.0500  93.0438 114.3344
  13.250   1.5136   0.05616   0.02938  -0.0809   0.0113   0.0500  93.1338 114.3344
  13.500   1.5131   0.05910   0.03168  -0.0801   0.0110   0.0500  93.2293 114.3344
  13.750   1.5122   0.06216   0.03410  -0.0795   0.0107   0.0500  93.3247 114.3344
  14.000   1.5111   0.06531   0.03662  -0.0790   0.0104   0.0500  93.4173 114.3344
  14.250   1.5097   0.06853   0.03923  -0.0786   0.0101   0.0500  93.5048 114.3344
  14.500   1.5080   0.07182   0.04191  -0.0783   0.0098   0.0500  93.5854 114.3344
  14.750   1.5062   0.07520   0.04469  -0.0782   0.0096   0.0500  93.6603 114.3344
  15.000   1.5043   0.07865   0.04757  -0.0782   0.0094   0.0500  93.7329 114.3344

