       XFOIL         Version 6.99
  
 Calculated polar for: NACA 4409 Airfoil M=4.0% P=40.0% T=9.0%         
  
 1 1 Reynolds number fixed          Mach number fixed         
  
 xtrf =   0.050 (top)        0.050 (bottom)  
 Mach =   0.000     Re =     0.389 e 6     Ncrit =   5.000  5.000
  
   alpha    CL        CD       CDp       CM     Top_Xtr  Bot_Xtr  Top_Itr  Bot_Itr
  ------ -------- --------- --------- -------- -------- -------- -------- --------
 -12.000  -0.4105   0.13372   0.12563  -0.0231   0.0500   0.0105  85.9845 106.7387
 -11.750  -0.4063   0.12984   0.12140  -0.0246   0.0500   0.0106  85.9845 106.7594
 -11.500  -0.4032   0.12567   0.11683  -0.0263   0.0500   0.0108  85.9845 106.8303
 -10.250  -0.3939   0.10383   0.09387  -0.0357   0.0500   0.0115  85.9845 107.0437
 -10.000  -0.3914   0.09989   0.08992  -0.0375   0.0500   0.0116  85.9845 107.0622
  -9.750  -0.3886   0.09606   0.08613  -0.0394   0.0500   0.0117  85.9845 107.0912
  -9.500  -0.3854   0.09237   0.08246  -0.0413   0.0500   0.0118  85.9845 107.1271
  -9.250  -0.3825   0.08860   0.07871  -0.0434   0.0500   0.0119  85.9845 107.1679
  -9.000  -0.3805   0.08455   0.07466  -0.0458   0.0500   0.0121  85.9845 107.2132
  -8.750  -0.3800   0.08008   0.07020  -0.0488   0.0500   0.0123  85.9845 107.2614
  -8.500  -0.3826   0.07504   0.06518  -0.0525   0.0500   0.0124  85.9845 107.3075
  -8.250  -0.3859   0.06786   0.05798  -0.0605   0.0500   0.0126  85.9845 107.3568
  -8.000  -0.4307   0.02289   0.01066  -0.0978   0.0500   0.0137  85.9845 107.6614
  -7.750  -0.4062   0.02156   0.00917  -0.0979   0.0500   0.0144  85.9845 107.8687
  -7.500  -0.3812   0.02040   0.00790  -0.0980   0.0500   0.0150  85.9845 108.0280
  -7.250  -0.3560   0.01946   0.00709  -0.0980   0.0500   0.0156  85.9845 108.1828
  -7.000  -0.3299   0.01877   0.00646  -0.0980   0.0500   0.0162  85.9845 108.3310
  -6.750  -0.3037   0.01811   0.00581  -0.0980   0.0500   0.0169  85.9845 108.5100
  -6.500  -0.2773   0.01744   0.00514  -0.0979   0.0500   0.0178  85.9845 108.7183
  -6.250  -0.2506   0.01684   0.00451  -0.0978   0.0500   0.0186  85.9845 108.9268
  -6.000  -0.2241   0.01624   0.00400  -0.0978   0.0500   0.0195  85.9845 109.1451
  -5.750  -0.1971   0.01590   0.00372  -0.0978   0.0500   0.0208  85.9845 109.4375
  -5.500  -0.1700   0.01554   0.00337  -0.0977   0.0500   0.0224  85.9845 109.7874
  -5.250  -0.1429   0.01512   0.00298  -0.0976   0.0500   0.0237  85.9845 110.0795
  -5.000  -0.1157   0.01477   0.00271  -0.0976   0.0500   0.0253  85.9845 110.3949
  -4.750  -0.0884   0.01448   0.00245  -0.0975   0.0500   0.0272  85.9845 110.7800
  -4.500  -0.0611   0.01419   0.00222  -0.0975   0.0500   0.0295  85.9845 111.2252
  -4.250  -0.0337   0.01398   0.00204  -0.0974   0.0500   0.0324  85.9845 111.7779
  -4.000  -0.0063   0.01374   0.00186  -0.0974   0.0500   0.0354  85.9845 112.3065
  -3.750   0.0212   0.01356   0.00170  -0.0973   0.0500   0.0390  85.9845 112.9264
  -3.500   0.0486   0.01338   0.00157  -0.0973   0.0500   0.0438  85.9845 113.7082
  -3.250   0.0761   0.01322   0.00146  -0.0972   0.0500   0.0494  85.9845 114.5629
  -3.000   0.1038   0.01310   0.00132  -0.0971   0.0500   0.0500  85.9845 114.6538
  -2.750   0.1314   0.01302   0.00122  -0.0970   0.0500   0.0500  85.9845 114.6538
  -2.500   0.1590   0.01298   0.00116  -0.0969   0.0500   0.0500  85.9845 114.6538
  -2.250   0.1866   0.01295   0.00111  -0.0969   0.0500   0.0500  85.9845 114.6538
  -2.000   0.2142   0.01293   0.00108  -0.0968   0.0500   0.0500  85.9845 114.6538
  -1.750   0.2417   0.01293   0.00105  -0.0967   0.0500   0.0500  85.9845 114.6538
  -1.500   0.2692   0.01293   0.00104  -0.0966   0.0500   0.0500  85.9845 114.6538
  -1.250   0.2967   0.01295   0.00103  -0.0965   0.0500   0.0500  85.9845 114.6538
  -1.000   0.3241   0.01297   0.00103  -0.0965   0.0500   0.0500  85.9845 114.6538
  -0.750   0.3515   0.01300   0.00104  -0.0964   0.0500   0.0500  85.9845 114.6538
  -0.500   0.3789   0.01303   0.00105  -0.0963   0.0500   0.0500  85.9845 114.6538
  -0.250   0.4062   0.01307   0.00107  -0.0962   0.0500   0.0500  85.9845 114.6538
   0.000   0.4335   0.01312   0.00109  -0.0961   0.0500   0.0500  85.9845 114.6538
   0.250   0.4608   0.01318   0.00112  -0.0960   0.0500   0.0500  85.9845 114.6538
   0.500   0.4880   0.01324   0.00115  -0.0958   0.0500   0.0500  85.9845 114.6538
   0.750   0.5151   0.01331   0.00119  -0.0957   0.0500   0.0500  85.9845 114.6538
   1.000   0.5422   0.01338   0.00123  -0.0956   0.0500   0.0500  85.9845 114.6538
   1.250   0.5692   0.01346   0.00128  -0.0954   0.0500   0.0500  85.9845 114.6538
   1.500   0.5962   0.01355   0.00132  -0.0953   0.0500   0.0500  85.9845 114.6538
   1.750   0.6230   0.01364   0.00138  -0.0952   0.0500   0.0500  85.9845 114.6538
   2.000   0.6499   0.01374   0.00143  -0.0950   0.0500   0.0500  85.9845 114.6538
   2.250   0.6766   0.01385   0.00149  -0.0948   0.0500   0.0500  85.9845 114.6538
   2.500   0.7032   0.01396   0.00156  -0.0946   0.0500   0.0500  85.9845 114.6538
   2.750   0.7298   0.01408   0.00162  -0.0944   0.0500   0.0500  85.9845 114.6538
   3.000   0.7563   0.01421   0.00170  -0.0942   0.0500   0.0500  85.9845 114.6538
   3.250   0.7827   0.01434   0.00177  -0.0940   0.0500   0.0500  85.9845 114.6538
   3.500   0.8090   0.01448   0.00185  -0.0938   0.0500   0.0500  85.9845 114.6538
   3.750   0.8352   0.01463   0.00194  -0.0935   0.0500   0.0500  85.9845 114.6538
   4.000   0.8612   0.01479   0.00202  -0.0933   0.0500   0.0500  85.9845 114.6538
   4.250   0.8872   0.01495   0.00212  -0.0930   0.0500   0.0500  85.9845 114.6538
   4.500   0.9130   0.01512   0.00222  -0.0927   0.0500   0.0500  85.9845 114.6538
   4.750   0.9386   0.01530   0.00232  -0.0924   0.0500   0.0500  85.9845 114.6538
   5.000   0.9642   0.01549   0.00243  -0.0920   0.0500   0.0500  85.9845 114.6538
   5.250   0.9895   0.01569   0.00254  -0.0917   0.0500   0.0500  85.9845 114.6538
   5.500   1.0147   0.01590   0.00267  -0.0913   0.0500   0.0500  85.9845 114.6538
   5.750   1.0397   0.01612   0.00279  -0.0908   0.0500   0.0500  85.9845 114.6538
   6.000   1.0645   0.01635   0.00293  -0.0904   0.0500   0.0500  85.9845 114.6538
   6.250   1.0891   0.01660   0.00308  -0.0899   0.0500   0.0500  85.9845 114.6538
   6.500   1.1134   0.01686   0.00324  -0.0894   0.0500   0.0500  85.9845 114.6538
   6.750   1.1374   0.01714   0.00341  -0.0888   0.0500   0.0500  85.9845 114.6538
   7.000   1.1611   0.01745   0.00359  -0.0881   0.0500   0.0500  85.9845 114.6538
   7.250   1.1823   0.01797   0.00389  -0.0872   0.0416   0.0500  87.2495 114.6538
   7.500   1.2031   0.01850   0.00419  -0.0861   0.0353   0.0500  88.2741 114.6538
   7.750   1.2233   0.01907   0.00451  -0.0850   0.0306   0.0500  89.0994 114.6538
   8.000   1.2432   0.01962   0.00483  -0.0839   0.0268   0.0500  89.8103 114.6538
   8.250   1.2627   0.02019   0.00517  -0.0826   0.0240   0.0500  90.3811 114.6538
   8.500   1.2811   0.02081   0.00553  -0.0812   0.0217   0.0500  90.8505 114.6538
   8.750   1.2986   0.02146   0.00592  -0.0797   0.0201   0.0500  91.2010 114.6538
   9.000   1.3156   0.02211   0.00631  -0.0782   0.0187   0.0500  91.5302 114.6538
   9.250   1.3298   0.02281   0.00673  -0.0761   0.0175   0.0500  91.8182 114.6538
   9.500   1.3410   0.02363   0.00722  -0.0736   0.0164   0.0500  92.0680 114.6538
   9.750   1.3550   0.02437   0.00769  -0.0717   0.0154   0.0500  92.3226 114.6538
  10.000   1.3683   0.02517   0.00821  -0.0698   0.0145   0.0500  92.5766 114.6538
  10.250   1.3803   0.02608   0.00879  -0.0678   0.0137   0.0500  92.7846 114.6538
  10.500   1.3887   0.02724   0.00954  -0.0654   0.0130   0.0500  92.9530 114.6538
  10.750   1.3974   0.02842   0.01034  -0.0632   0.0126   0.0500  93.0802 114.6538
  11.000   1.4064   0.02961   0.01116  -0.0612   0.0122   0.0500  93.2086 114.6538
  11.250   1.4143   0.03092   0.01207  -0.0592   0.0117   0.0500  93.3399 114.6538
  11.500   1.4215   0.03233   0.01306  -0.0573   0.0113   0.0500  93.4643 114.6538
  11.750   1.4281   0.03384   0.01414  -0.0555   0.0109   0.0500  93.5782 114.6538
  12.000   1.4339   0.03547   0.01531  -0.0539   0.0106   0.0500  93.6796 114.6538
  12.250   1.4389   0.03723   0.01660  -0.0523   0.0103   0.0500  93.7700 114.6538
  12.500   1.4423   0.03922   0.01807  -0.0509   0.0100   0.0500  93.8562 114.6538
  12.750   1.4426   0.04159   0.01983  -0.0495   0.0097   0.0500  93.9446 114.6538
  13.000   1.4419   0.04414   0.02178  -0.0482   0.0095   0.0500  94.0227 114.6538
  13.250   1.4451   0.04639   0.02355  -0.0473   0.0093   0.0500  94.0944 114.6538
  13.500   1.4473   0.04883   0.02548  -0.0465   0.0090   0.0500  94.1790 114.6538
  13.750   1.4484   0.05146   0.02758  -0.0459   0.0087   0.0500  94.2686 114.6538
  14.000   1.4483   0.05427   0.02985  -0.0454   0.0085   0.0500  94.3545 114.6538
  14.250   1.4472   0.05727   0.03231  -0.0452   0.0083   0.0500  94.4327 114.6538
  14.500   1.4453   0.06050   0.03497  -0.0451   0.0081   0.0500  94.4999 114.6538
  14.750   1.4424   0.06397   0.03788  -0.0452   0.0079   0.0500  94.5554 114.6538
  15.000   1.4387   0.06765   0.04100  -0.0456   0.0078   0.0500  94.6052 114.6538
