       XFOIL         Version 6.99
  
 Calculated polar for: NACA 2409 Airfoil M=2.5% P=40.0% T=9.0%         
  
 1 1 Reynolds number fixed          Mach number fixed         
  
 xtrf =   0.050 (top)        0.050 (bottom)  
 Mach =   0.000     Re =     0.208 e 6     Ncrit =   5.000  5.000
  
   alpha    CL        CD       CDp       CM     Top_Xtr  Bot_Xtr  Top_Itr  Bot_Itr
  ------ -------- --------- --------- -------- -------- -------- -------- --------
 -11.750  -0.5150   0.13010   0.11819  -0.0069   0.0500   0.0170  86.2284 108.8271
 -11.500  -0.5129   0.12583   0.11370  -0.0086   0.0500   0.0169  86.2284 108.8066
 -11.250  -0.5116   0.12142   0.10909  -0.0104   0.0500   0.0169  86.2284 108.7967
 -11.000  -0.5109   0.11685   0.10436  -0.0123   0.0500   0.0169  86.2284 108.7970
 -10.750  -0.5108   0.11208   0.09946  -0.0144   0.0500   0.0169  86.2284 108.8079
 -10.500  -0.5145   0.10624   0.09336  -0.0172   0.0500   0.0173  86.2284 108.9013
 -10.000  -0.5170   0.09666   0.08378  -0.0220   0.0500   0.0181  86.2284 109.1017
  -9.750  -0.5137   0.09323   0.08049  -0.0238   0.0500   0.0185  86.2284 109.1861
  -9.500  -0.5164   0.08810   0.07541  -0.0268   0.0500   0.0186  86.2284 109.2185
  -9.250  -0.5268   0.08087   0.06817  -0.0315   0.0500   0.0185  86.2284 109.1901
  -9.000  -0.6223   0.04376   0.02971  -0.0629   0.0500   0.0173  86.2284 108.9141
  -8.750  -0.6267   0.03578   0.02112  -0.0652   0.0500   0.0176  86.2284 108.9835
  -8.500  -0.6125   0.03263   0.01805  -0.0654   0.0500   0.0180  86.2284 109.0734
  -8.250  -0.5933   0.03072   0.01625  -0.0654   0.0500   0.0185  86.2284 109.1816
  -8.000  -0.5729   0.02888   0.01442  -0.0652   0.0500   0.0191  86.2284 109.3189
  -7.750  -0.5516   0.02702   0.01249  -0.0650   0.0500   0.0198  86.2284 109.4935
  -7.500  -0.5294   0.02522   0.01059  -0.0647   0.0500   0.0207  86.2284 109.7059
  -7.250  -0.5058   0.02373   0.00888  -0.0643   0.0500   0.0220  86.2284 110.0025
  -7.000  -0.4815   0.02287   0.00831  -0.0642   0.0500   0.0232  86.2284 110.2537
  -6.750  -0.4566   0.02202   0.00752  -0.0639   0.0500   0.0246  86.2284 110.5445
  -6.500  -0.4316   0.02097   0.00647  -0.0636   0.0500   0.0260  86.2284 110.8285
  -6.250  -0.4065   0.02001   0.00560  -0.0633   0.0500   0.0273  86.2284 111.0923
  -6.000  -0.3809   0.01933   0.00509  -0.0631   0.0500   0.0288  86.2284 111.3861
  -5.750  -0.3549   0.01876   0.00454  -0.0628   0.0500   0.0314  86.2284 111.8774
  -5.500  -0.3290   0.01817   0.00411  -0.0626   0.0500   0.0339  86.2284 112.3167
  -5.250  -0.3028   0.01763   0.00364  -0.0624   0.0500   0.0366  86.2284 112.7950
  -5.000  -0.2767   0.01710   0.00323  -0.0622   0.0500   0.0395  86.2284 113.2829
  -4.750  -0.2500   0.01671   0.00289  -0.0620   0.0500   0.0440  86.2284 114.0148
  -4.500  -0.2236   0.01630   0.00261  -0.0618   0.0500   0.0489  86.2284 114.7459
  -4.250  -0.1969   0.01586   0.00220  -0.0615   0.0500   0.0500  86.2284 114.9194
  -4.000  -0.1699   0.01555   0.00191  -0.0613   0.0500   0.0500  86.2284 114.9194
  -3.750  -0.1427   0.01535   0.00171  -0.0612   0.0500   0.0500  86.2284 114.9194
  -3.500  -0.1155   0.01520   0.00155  -0.0610   0.0500   0.0500  86.2284 114.9194
  -3.250  -0.0882   0.01507   0.00142  -0.0609   0.0500   0.0500  86.2284 114.9194
  -3.000  -0.0609   0.01497   0.00132  -0.0608   0.0500   0.0500  86.2284 114.9194
  -2.750  -0.0336   0.01489   0.00123  -0.0606   0.0500   0.0500  86.2284 114.9194
  -2.500  -0.0062   0.01482   0.00116  -0.0605   0.0500   0.0500  86.2284 114.9194
  -2.250   0.0211   0.01476   0.00110  -0.0604   0.0500   0.0500  86.2284 114.9194
  -2.000   0.0485   0.01472   0.00105  -0.0603   0.0500   0.0500  86.2284 114.9194
  -1.750   0.0758   0.01469   0.00101  -0.0602   0.0500   0.0500  86.2284 114.9194
  -1.500   0.1032   0.01466   0.00098  -0.0601   0.0500   0.0500  86.2284 114.9194
  -1.250   0.1305   0.01465   0.00096  -0.0599   0.0500   0.0500  86.2284 114.9194
  -1.000   0.1578   0.01465   0.00094  -0.0598   0.0500   0.0500  86.2284 114.9194
  -0.750   0.1851   0.01465   0.00093  -0.0597   0.0500   0.0500  86.2284 114.9194
  -0.500   0.2124   0.01466   0.00093  -0.0596   0.0500   0.0500  86.2284 114.9194
  -0.250   0.2396   0.01469   0.00094  -0.0595   0.0500   0.0500  86.2284 114.9194
   0.000   0.2669   0.01471   0.00095  -0.0593   0.0500   0.0500  86.2284 114.9194
   0.250   0.2940   0.01475   0.00097  -0.0592   0.0500   0.0500  86.2284 114.9194
   0.500   0.3212   0.01480   0.00099  -0.0591   0.0500   0.0500  86.2284 114.9194
   0.750   0.3483   0.01485   0.00102  -0.0589   0.0500   0.0500  86.2284 114.9194
   1.000   0.3754   0.01491   0.00105  -0.0588   0.0500   0.0500  86.2284 114.9194
   1.250   0.4024   0.01498   0.00109  -0.0587   0.0500   0.0500  86.2284 114.9194
   1.500   0.4294   0.01506   0.00114  -0.0585   0.0500   0.0500  86.2284 114.9194
   1.750   0.4564   0.01514   0.00119  -0.0583   0.0500   0.0500  86.2284 114.9194
   2.000   0.4832   0.01523   0.00124  -0.0582   0.0500   0.0500  86.2284 114.9194
   2.250   0.5100   0.01533   0.00130  -0.0580   0.0500   0.0500  86.2284 114.9194
   2.500   0.5368   0.01544   0.00137  -0.0578   0.0500   0.0500  86.2284 114.9194
   2.750   0.5635   0.01556   0.00144  -0.0576   0.0500   0.0500  86.2284 114.9194
   3.000   0.5901   0.01569   0.00152  -0.0574   0.0500   0.0500  86.2284 114.9194
   3.250   0.6166   0.01582   0.00160  -0.0572   0.0500   0.0500  86.2284 114.9194
   3.500   0.6430   0.01597   0.00169  -0.0570   0.0500   0.0500  86.2284 114.9194
   3.750   0.6693   0.01612   0.00179  -0.0567   0.0500   0.0500  86.2284 114.9194
   4.000   0.6956   0.01629   0.00190  -0.0564   0.0500   0.0500  86.2284 114.9194
   4.250   0.7217   0.01646   0.00201  -0.0562   0.0500   0.0500  86.2284 114.9194
   4.500   0.7477   0.01665   0.00213  -0.0559   0.0500   0.0500  86.2284 114.9194
   4.750   0.7735   0.01685   0.00227  -0.0556   0.0500   0.0500  86.2284 114.9194
   5.000   0.7993   0.01706   0.00241  -0.0552   0.0500   0.0500  86.2284 114.9194
   5.250   0.8248   0.01729   0.00256  -0.0549   0.0500   0.0500  86.2284 114.9194
   5.500   0.8502   0.01753   0.00273  -0.0545   0.0500   0.0500  86.2284 114.9194
   5.750   0.8755   0.01779   0.00291  -0.0541   0.0500   0.0500  86.2284 114.9194
   6.000   0.9004   0.01808   0.00311  -0.0536   0.0500   0.0500  86.2284 114.9194
   6.250   0.9251   0.01839   0.00333  -0.0531   0.0500   0.0500  86.2284 114.9194
   6.500   0.9495   0.01874   0.00359  -0.0526   0.0500   0.0500  86.2284 114.9194
   6.750   0.9731   0.01918   0.00392  -0.0519   0.0500   0.0500  86.2284 114.9194
   7.000   0.9952   0.01979   0.00433  -0.0510   0.0465   0.0500  86.7501 114.9194
   7.250   1.0165   0.02046   0.00476  -0.0501   0.0405   0.0500  87.6743 114.9194
   7.500   1.0372   0.02117   0.00521  -0.0491   0.0360   0.0500  88.4185 114.9194
   7.750   1.0570   0.02196   0.00571  -0.0480   0.0328   0.0500  88.9523 114.9194
   8.000   1.0766   0.02273   0.00624  -0.0468   0.0302   0.0500  89.4422 114.9194
   8.250   1.0955   0.02354   0.00676  -0.0456   0.0277   0.0500  89.8952 114.9194
   8.500   1.1138   0.02440   0.00735  -0.0443   0.0256   0.0500  90.3227 114.9194
   8.750   1.1316   0.02527   0.00795  -0.0430   0.0238   0.0500  90.6739 114.9194
   9.000   1.1475   0.02629   0.00860  -0.0415   0.0226   0.0500  90.9215 114.9194
   9.250   1.1623   0.02743   0.00939  -0.0397   0.0216   0.0500  91.1387 114.9194
   9.500   1.1773   0.02856   0.01020  -0.0380   0.0206   0.0500  91.3701 114.9194
   9.750   1.1918   0.02967   0.01098  -0.0364   0.0195   0.0500  91.6094 114.9194
  10.000   1.2049   0.03071   0.01170  -0.0346   0.0186   0.0500  91.8246 114.9194
  10.250   1.2136   0.03202   0.01253  -0.0323   0.0178   0.0500  92.0065 114.9194
  10.500   1.2256   0.03326   0.01353  -0.0304   0.0170   0.0500  92.2168 114.9194
  10.750   1.2360   0.03473   0.01466  -0.0285   0.0163   0.0500  92.3877 114.9194
  11.000   1.2451   0.03630   0.01587  -0.0266   0.0157   0.0500  92.5300 114.9194
  11.250   1.2531   0.03793   0.01712  -0.0247   0.0152   0.0500  92.6526 114.9194
  11.500   1.2598   0.03963   0.01843  -0.0229   0.0148   0.0500  92.7563 114.9194
  11.750   1.2651   0.04146   0.01984  -0.0213   0.0145   0.0500  92.8443 114.9194
  12.000   1.2688   0.04352   0.02141  -0.0197   0.0142   0.0500  92.9209 114.9194
  12.250   1.2700   0.04600   0.02330  -0.0182   0.0139   0.0500  92.9918 114.9194
  12.500   1.2689   0.04877   0.02568  -0.0168   0.0137   0.0500  93.0490 114.9194
  12.750   1.2650   0.05190   0.02845  -0.0157   0.0135   0.0500  93.1032 114.9194
  13.000   1.2582   0.05546   0.03163  -0.0151   0.0133   0.0500  93.1532 114.9194
  13.250   1.2488   0.05950   0.03530  -0.0150   0.0132   0.0500  93.2026 114.9194
  13.500   1.2369   0.06403   0.03949  -0.0156   0.0130   0.0500  93.2476 114.9194
  13.750   1.2228   0.06914   0.04430  -0.0170   0.0129   0.0500  93.2852 114.9194
  14.000   1.2067   0.07491   0.04983  -0.0191   0.0128   0.0500  93.3132 114.9194
  14.250   1.1883   0.08139   0.05617  -0.0221   0.0127   0.0500  93.3284 114.9194
  14.500   1.1676   0.08870   0.06349  -0.0258   0.0127   0.0500  93.3289 114.9194
  14.750   1.1448   0.09702   0.07207  -0.0306   0.0128   0.0500  93.3132 114.9194
  15.000   1.1199   0.10651   0.08216  -0.0363   0.0129   0.0500  93.2792 114.9194

