       XFOIL         Version 6.99
  
 Calculated polar for: NACA 3409 Airfoil M=3.4% P=40.0% T=9.0%         
  
 1 1 Reynolds number fixed          Mach number fixed         
  
 xtrf =   0.050 (top)        0.050 (bottom)  
 Mach =   0.000     Re =     0.176 e 6     Ncrit =   5.000  5.000
  
   alpha    CL        CD       CDp       CM     Top_Xtr  Bot_Xtr  Top_Itr  Bot_Itr
  ------ -------- --------- --------- -------- -------- -------- -------- --------
 -11.500  -0.4373   0.13172   0.12036  -0.0182   0.0500   0.0286  86.0886 111.1797
 -11.250  -0.4423   0.12671   0.11343  -0.0224   0.0500   0.0275  86.0886 110.9823
 -11.000  -0.4314   0.12274   0.11089  -0.0213   0.0500   0.0216  86.0886 109.7451
 -10.750  -0.4275   0.11895   0.10701  -0.0227   0.0500   0.0211  86.0886 109.6257
 -10.500  -0.4244   0.11496   0.10292  -0.0244   0.0500   0.0207  86.0886 109.5340
 -10.250  -0.4219   0.11088   0.09873  -0.0262   0.0500   0.0204  86.0886 109.4679
 -10.000  -0.4198   0.10672   0.09448  -0.0281   0.0500   0.0202  86.0886 109.4269
  -9.750  -0.4172   0.10278   0.09045  -0.0300   0.0500   0.0206  86.0886 109.5197
  -9.500  -0.4156   0.09858   0.08614  -0.0323   0.0500   0.0213  86.0886 109.6648
  -9.250  -0.4154   0.09393   0.08137  -0.0349   0.0500   0.0218  86.0886 109.7737
  -9.000  -0.4156   0.08914   0.07652  -0.0377   0.0500   0.0220  86.0886 109.8169
  -8.750  -0.4157   0.08440   0.07181  -0.0406   0.0500   0.0219  86.0886 109.8062
  -8.500  -0.4163   0.07947   0.06695  -0.0441   0.0500   0.0218  86.0886 109.7756
  -8.250  -0.4193   0.07415   0.06169  -0.0487   0.0500   0.0216  86.0886 109.7468
  -8.000  -0.4182   0.06662   0.05417  -0.0573   0.0500   0.0215  86.0886 109.7149
  -7.750  -0.4184   0.05399   0.04133  -0.0703   0.0500   0.0213  86.0886 109.6629
  -7.500  -0.4289   0.03424   0.02036  -0.0819   0.0500   0.0214  86.0886 109.6984
  -7.250  -0.4129   0.02902   0.01448  -0.0829   0.0500   0.0223  86.0886 109.8953
  -7.000  -0.3908   0.02673   0.01208  -0.0830   0.0500   0.0232  86.0886 110.0976
  -6.750  -0.3662   0.02595   0.01144  -0.0831   0.0500   0.0245  86.0886 110.3657
  -6.500  -0.3417   0.02454   0.00989  -0.0830   0.0500   0.0263  86.0886 110.7249
  -6.250  -0.3167   0.02285   0.00792  -0.0827   0.0500   0.0276  86.0886 111.0001
  -6.000  -0.2916   0.02184   0.00717  -0.0826   0.0500   0.0288  86.0886 111.2220
  -5.750  -0.2658   0.02098   0.00636  -0.0825   0.0500   0.0304  86.0886 111.5216
  -5.500  -0.2394   0.02016   0.00542  -0.0822   0.0500   0.0329  86.0886 112.0006
  -5.250  -0.2134   0.01956   0.00505  -0.0821   0.0500   0.0354  86.0886 112.4276
  -5.000  -0.1870   0.01887   0.00436  -0.0819   0.0500   0.0382  86.0886 112.9047
  -4.750  -0.1607   0.01826   0.00389  -0.0817   0.0500   0.0408  86.0886 113.3309
  -4.500  -0.1340   0.01780   0.00345  -0.0815   0.0500   0.0451  86.0886 114.0359
  -4.250  -0.1074   0.01736   0.00314  -0.0814   0.0500   0.0497  86.0886 114.7206
  -4.000  -0.0808   0.01678   0.00260  -0.0812   0.0500   0.0500  86.0886 114.7681
  -3.750  -0.0537   0.01641   0.00223  -0.0810   0.0500   0.0500  86.0886 114.7681
  -3.500  -0.0266   0.01617   0.00198  -0.0808   0.0500   0.0500  86.0886 114.7681
  -3.250   0.0006   0.01600   0.00179  -0.0807   0.0500   0.0500  86.0886 114.7681
  -3.000   0.0279   0.01587   0.00165  -0.0805   0.0500   0.0500  86.0886 114.7681
  -2.750   0.0552   0.01577   0.00153  -0.0804   0.0500   0.0500  86.0886 114.7681
  -2.500   0.0824   0.01570   0.00143  -0.0802   0.0500   0.0500  86.0886 114.7681
  -2.250   0.1097   0.01564   0.00136  -0.0801   0.0500   0.0500  86.0886 114.7681
  -2.000   0.1369   0.01559   0.00129  -0.0800   0.0500   0.0500  86.0886 114.7681
  -1.750   0.1641   0.01556   0.00125  -0.0798   0.0500   0.0500  86.0886 114.7681
  -1.500   0.1913   0.01554   0.00121  -0.0797   0.0500   0.0500  86.0886 114.7681
  -1.250   0.2185   0.01553   0.00118  -0.0796   0.0500   0.0500  86.0886 114.7681
  -1.000   0.2457   0.01553   0.00116  -0.0794   0.0500   0.0500  86.0886 114.7681
  -0.750   0.2728   0.01555   0.00116  -0.0793   0.0500   0.0500  86.0886 114.7681
  -0.500   0.2999   0.01557   0.00116  -0.0791   0.0500   0.0500  86.0886 114.7681
  -0.250   0.3269   0.01560   0.00116  -0.0790   0.0500   0.0500  86.0886 114.7681
   0.000   0.3539   0.01564   0.00118  -0.0788   0.0500   0.0500  86.0886 114.7681
   0.250   0.3809   0.01569   0.00120  -0.0786   0.0500   0.0500  86.0886 114.7681
   0.500   0.4078   0.01575   0.00123  -0.0785   0.0500   0.0500  86.0886 114.7681
   0.750   0.4347   0.01582   0.00126  -0.0783   0.0500   0.0500  86.0886 114.7681
   1.000   0.4615   0.01590   0.00130  -0.0781   0.0500   0.0500  86.0886 114.7681
   1.250   0.4882   0.01598   0.00134  -0.0779   0.0500   0.0500  86.0886 114.7681
   1.500   0.5149   0.01607   0.00140  -0.0777   0.0500   0.0500  86.0886 114.7681
   1.750   0.5415   0.01618   0.00145  -0.0775   0.0500   0.0500  86.0886 114.7681
   2.000   0.5681   0.01629   0.00151  -0.0773   0.0500   0.0500  86.0886 114.7681
   2.250   0.5945   0.01640   0.00158  -0.0771   0.0500   0.0500  86.0886 114.7681
   2.500   0.6209   0.01653   0.00166  -0.0768   0.0500   0.0500  86.0886 114.7681
   2.750   0.6472   0.01667   0.00174  -0.0766   0.0500   0.0500  86.0886 114.7681
   3.000   0.6734   0.01681   0.00182  -0.0763   0.0500   0.0500  86.0886 114.7681
   3.250   0.6994   0.01697   0.00191  -0.0760   0.0500   0.0500  86.0886 114.7681
   3.500   0.7254   0.01713   0.00201  -0.0757   0.0500   0.0500  86.0886 114.7681
   3.750   0.7512   0.01731   0.00212  -0.0754   0.0500   0.0500  86.0886 114.7681
   4.000   0.7770   0.01750   0.00223  -0.0751   0.0500   0.0500  86.0886 114.7681
   4.250   0.8025   0.01769   0.00235  -0.0747   0.0500   0.0500  86.0886 114.7681
   4.500   0.8280   0.01790   0.00248  -0.0744   0.0500   0.0500  86.0886 114.7681
   4.750   0.8533   0.01812   0.00261  -0.0740   0.0500   0.0500  86.0886 114.7681
   5.000   0.8784   0.01836   0.00276  -0.0736   0.0500   0.0500  86.0886 114.7681
   5.250   0.9032   0.01861   0.00292  -0.0731   0.0500   0.0500  86.0886 114.7681
   5.500   0.9279   0.01887   0.00308  -0.0726   0.0500   0.0500  86.0886 114.7681
   5.750   0.9524   0.01915   0.00327  -0.0721   0.0500   0.0500  86.0886 114.7681
   6.000   0.9766   0.01945   0.00346  -0.0715   0.0500   0.0500  86.0886 114.7681
   6.250   1.0006   0.01977   0.00367  -0.0709   0.0500   0.0500  86.0886 114.7681
   6.500   1.0242   0.02012   0.00390  -0.0703   0.0500   0.0500  86.0886 114.7681
   6.750   1.0474   0.02049   0.00415  -0.0696   0.0500   0.0500  86.0886 114.7681
   7.000   1.0701   0.02091   0.00444  -0.0688   0.0500   0.0500  86.0886 114.7681
   7.250   1.0920   0.02141   0.00478  -0.0678   0.0500   0.0500  86.0886 114.7681
   7.500   1.1121   0.02206   0.00524  -0.0666   0.0500   0.0500  86.0886 114.7681
   7.750   1.1301   0.02290   0.00576  -0.0652   0.0444   0.0500  86.9172 114.7681
   8.000   1.1476   0.02372   0.00628  -0.0637   0.0391   0.0500  87.7501 114.7681
   8.250   1.1640   0.02463   0.00686  -0.0621   0.0353   0.0500  88.3782 114.7681
   8.500   1.1792   0.02558   0.00746  -0.0604   0.0326   0.0500  88.8461 114.7681
   8.750   1.1929   0.02663   0.00814  -0.0584   0.0304   0.0500  89.2450 114.7681
   9.000   1.2066   0.02760   0.00879  -0.0565   0.0281   0.0500  89.6749 114.7681
   9.250   1.2156   0.02872   0.00947  -0.0540   0.0264   0.0500  89.9983 114.7681
   9.500   1.2273   0.02976   0.01021  -0.0518   0.0247   0.0500  90.3412 114.7681
   9.750   1.2376   0.03099   0.01105  -0.0497   0.0235   0.0500  90.5964 114.7681
  10.000   1.2471   0.03230   0.01193  -0.0476   0.0225   0.0500  90.8034 114.7681
  10.250   1.2545   0.03384   0.01293  -0.0455   0.0217   0.0500  90.9696 114.7681
  10.500   1.2634   0.03540   0.01405  -0.0434   0.0209   0.0500  91.1363 114.7681
  10.750   1.2727   0.03697   0.01520  -0.0416   0.0200   0.0500  91.3436 114.7681
  11.000   1.2814   0.03853   0.01635  -0.0399   0.0191   0.0500  91.5636 114.7681
  11.250   1.2892   0.04010   0.01751  -0.0383   0.0182   0.0500  91.7601 114.7681
  11.500   1.2954   0.04182   0.01874  -0.0368   0.0175   0.0500  91.9197 114.7681
  11.750   1.3008   0.04387   0.02026  -0.0352   0.0169   0.0500  92.0670 114.7681
  12.000   1.3063   0.04604   0.02199  -0.0337   0.0164   0.0500  92.1964 114.7681
  12.250   1.3103   0.04841   0.02390  -0.0323   0.0159   0.0500  92.3168 114.7681
  12.500   1.3124   0.05098   0.02599  -0.0310   0.0155   0.0500  92.4251 114.7681
  12.750   1.3128   0.05375   0.02829  -0.0299   0.0151   0.0500  92.5190 114.7681
  13.000   1.3114   0.05674   0.03081  -0.0290   0.0148   0.0500  92.5997 114.7681
  13.250   1.3081   0.05997   0.03359  -0.0284   0.0146   0.0500  92.6674 114.7681
  13.500   1.3031   0.06347   0.03665  -0.0281   0.0143   0.0500  92.7239 114.7681
  13.750   1.2965   0.06730   0.04005  -0.0283   0.0142   0.0500  92.7715 114.7681
  14.000   1.2883   0.07147   0.04384  -0.0288   0.0140   0.0500  92.8108 114.7681
  14.250   1.2781   0.07602   0.04805  -0.0297   0.0139   0.0500  92.8423 114.7681
  14.500   1.2662   0.08103   0.05279  -0.0311   0.0138   0.0500  92.8670 114.7681
  14.750   1.2527   0.08657   0.05818  -0.0331   0.0137   0.0500  92.8856 114.7681
  15.000   1.2373   0.09274   0.06437  -0.0357   0.0137   0.0500  92.8976 114.7681
