       XFOIL         Version 6.99
  
 Calculated polar for: NACA 2409 Airfoil M=2.4% P=40.0% T=9.0%         
  
 1 1 Reynolds number fixed          Mach number fixed         
  
 xtrf =   0.050 (top)        0.050 (bottom)  
 Mach =   0.000     Re =     0.117 e 6     Ncrit =   5.000  5.000
  
   alpha    CL        CD       CDp       CM     Top_Xtr  Bot_Xtr  Top_Itr  Bot_Itr
  ------ -------- --------- --------- -------- -------- -------- -------- --------
 -11.750  -0.5147   0.13738   0.12274  -0.0076   0.0500   0.0436  86.2449 113.9579
 -11.500  -0.5149   0.13309   0.11763  -0.0104   0.0500   0.0437  86.2449 113.9845
 -11.250  -0.5129   0.12882   0.11302  -0.0124   0.0500   0.0438  86.2449 113.9916
 -11.000  -0.5052   0.12255   0.10795  -0.0120   0.0500   0.0314  86.2449 111.8839
 -10.750  -0.5002   0.11884   0.10442  -0.0130   0.0500   0.0306  86.2449 111.7326
 -10.500  -0.4978   0.11463   0.10019  -0.0146   0.0500   0.0298  86.2449 111.5894
 -10.250  -0.4970   0.11009   0.09560  -0.0166   0.0500   0.0291  86.2449 111.4609
 -10.000  -0.4975   0.10520   0.09065  -0.0190   0.0500   0.0285  86.2449 111.3475
  -9.750  -0.4997   0.09989   0.08526  -0.0217   0.0500   0.0280  86.2449 111.2467
  -9.500  -0.5047   0.09381   0.07907  -0.0252   0.0500   0.0275  86.2449 111.1498
  -9.000  -0.5258   0.07798   0.06285  -0.0364   0.0500   0.0266  86.2449 110.9762
  -8.750  -0.5337   0.07081   0.05577  -0.0433   0.0500   0.0265  86.2449 110.9452
  -8.500  -0.5434   0.05964   0.04445  -0.0534   0.0500   0.0262  86.2449 110.8863
  -8.250  -0.5533   0.05008   0.03459  -0.0595   0.0500   0.0261  86.2449 110.8715
  -8.000  -0.5577   0.04130   0.02501  -0.0625   0.0500   0.0268  86.2449 111.0055
  -7.750  -0.5368   0.04063   0.02489  -0.0625   0.0500   0.0279  86.2449 111.2270
  -7.500  -0.5198   0.03794   0.02214  -0.0628   0.0500   0.0293  86.2449 111.5001
  -7.250  -0.5038   0.03393   0.01776  -0.0629   0.0500   0.0305  86.2449 111.7216
  -7.000  -0.4846   0.03048   0.01387  -0.0626   0.0500   0.0316  86.2449 111.9306
  -6.750  -0.4621   0.02852   0.01200  -0.0624   0.0500   0.0327  86.2449 112.1355
  -6.500  -0.4381   0.02722   0.01082  -0.0622   0.0500   0.0345  86.2449 112.4413
  -6.250  -0.4135   0.02574   0.00909  -0.0618   0.0500   0.0376  86.2449 112.9839
  -6.000  -0.3889   0.02469   0.00834  -0.0616   0.0500   0.0397  86.2449 113.3361
  -5.750  -0.3636   0.02349   0.00718  -0.0612   0.0500   0.0422  86.2449 113.7376
  -5.500  -0.3382   0.02246   0.00628  -0.0609   0.0500   0.0452  86.2449 114.2078
  -5.250  -0.3124   0.02172   0.00559  -0.0606   0.0500   0.0498  86.2449 114.9112
  -5.000  -0.2872   0.02058   0.00462  -0.0600   0.0500   0.0500  86.2449 114.9374
  -4.750  -0.2618   0.01973   0.00387  -0.0596   0.0500   0.0500  86.2449 114.9374
  -4.500  -0.2357   0.01913   0.00332  -0.0592   0.0500   0.0500  86.2449 114.9374
  -4.250  -0.2092   0.01870   0.00290  -0.0590   0.0500   0.0500  86.2449 114.9374
  -4.000  -0.1825   0.01837   0.00259  -0.0587   0.0500   0.0500  86.2449 114.9374
  -3.750  -0.1557   0.01812   0.00233  -0.0585   0.0500   0.0500  86.2449 114.9374
  -3.500  -0.1288   0.01792   0.00213  -0.0583   0.0500   0.0500  86.2449 114.9374
  -3.250  -0.1018   0.01775   0.00195  -0.0581   0.0500   0.0500  86.2449 114.9374
  -3.000  -0.0748   0.01761   0.00180  -0.0579   0.0500   0.0500  86.2449 114.9374
  -2.750  -0.0477   0.01749   0.00168  -0.0578   0.0500   0.0500  86.2449 114.9374
  -2.500  -0.0207   0.01739   0.00157  -0.0576   0.0500   0.0500  86.2449 114.9374
  -2.250   0.0064   0.01730   0.00148  -0.0574   0.0500   0.0500  86.2449 114.9374
  -2.000   0.0334   0.01724   0.00141  -0.0572   0.0500   0.0500  86.2449 114.9374
  -1.750   0.0605   0.01718   0.00134  -0.0571   0.0500   0.0500  86.2449 114.9374
  -1.500   0.0875   0.01714   0.00129  -0.0569   0.0500   0.0500  86.2449 114.9374
  -1.250   0.1146   0.01712   0.00125  -0.0567   0.0500   0.0500  86.2449 114.9374
  -1.000   0.1416   0.01710   0.00123  -0.0565   0.0500   0.0500  86.2449 114.9374
  -0.750   0.1687   0.01710   0.00121  -0.0564   0.0500   0.0500  86.2449 114.9374
  -0.500   0.1957   0.01711   0.00120  -0.0562   0.0500   0.0500  86.2449 114.9374
  -0.250   0.2226   0.01713   0.00120  -0.0560   0.0500   0.0500  86.2449 114.9374
   0.000   0.2496   0.01716   0.00120  -0.0558   0.0500   0.0500  86.2449 114.9374
   0.250   0.2765   0.01720   0.00122  -0.0556   0.0500   0.0500  86.2449 114.9374
   0.500   0.3034   0.01725   0.00124  -0.0554   0.0500   0.0500  86.2449 114.9374
   0.750   0.3302   0.01731   0.00127  -0.0552   0.0500   0.0500  86.2449 114.9374
   1.000   0.3570   0.01738   0.00130  -0.0550   0.0500   0.0500  86.2449 114.9374
   1.250   0.3838   0.01746   0.00135  -0.0548   0.0500   0.0500  86.2449 114.9374
   1.500   0.4105   0.01755   0.00140  -0.0546   0.0500   0.0500  86.2449 114.9374
   1.750   0.4372   0.01765   0.00145  -0.0544   0.0500   0.0500  86.2449 114.9374
   2.000   0.4639   0.01776   0.00152  -0.0542   0.0500   0.0500  86.2449 114.9374
   2.250   0.4904   0.01788   0.00159  -0.0539   0.0500   0.0500  86.2449 114.9374
   2.500   0.5168   0.01801   0.00167  -0.0537   0.0500   0.0500  86.2449 114.9374
   2.750   0.5431   0.01815   0.00176  -0.0534   0.0500   0.0500  86.2449 114.9374
   3.000   0.5693   0.01831   0.00185  -0.0531   0.0500   0.0500  86.2449 114.9374
   3.250   0.5955   0.01847   0.00196  -0.0528   0.0500   0.0500  86.2449 114.9374
   3.500   0.6216   0.01865   0.00207  -0.0526   0.0500   0.0500  86.2449 114.9374
   3.750   0.6476   0.01884   0.00219  -0.0522   0.0500   0.0500  86.2449 114.9374
   4.000   0.6735   0.01905   0.00232  -0.0519   0.0500   0.0500  86.2449 114.9374
   4.250   0.6993   0.01927   0.00247  -0.0516   0.0500   0.0500  86.2449 114.9374
   4.500   0.7249   0.01950   0.00262  -0.0513   0.0500   0.0500  86.2449 114.9374
   4.750   0.7504   0.01975   0.00279  -0.0509   0.0500   0.0500  86.2449 114.9374
   5.000   0.7757   0.02002   0.00297  -0.0505   0.0500   0.0500  86.2449 114.9374
   5.250   0.8008   0.02030   0.00317  -0.0501   0.0500   0.0500  86.2449 114.9374
   5.500   0.8257   0.02061   0.00339  -0.0496   0.0500   0.0500  86.2449 114.9374
   5.750   0.8504   0.02094   0.00362  -0.0491   0.0500   0.0500  86.2449 114.9374
   6.000   0.8748   0.02130   0.00388  -0.0486   0.0500   0.0500  86.2449 114.9374
   6.250   0.8989   0.02169   0.00417  -0.0480   0.0500   0.0500  86.2449 114.9374
   6.500   0.9225   0.02212   0.00449  -0.0474   0.0500   0.0500  86.2449 114.9374
   6.750   0.9456   0.02262   0.00486  -0.0466   0.0500   0.0500  86.2449 114.9374
   7.000   0.9678   0.02322   0.00532  -0.0457   0.0500   0.0500  86.2449 114.9374
   7.250   0.9883   0.02400   0.00590  -0.0446   0.0500   0.0500  86.2449 114.9374
   7.500   1.0063   0.02505   0.00667  -0.0430   0.0500   0.0500  86.2449 114.9374
   7.750   1.0233   0.02618   0.00746  -0.0414   0.0473   0.0500  86.6386 114.9374
   8.000   1.0402   0.02728   0.00817  -0.0400   0.0432   0.0500  87.2661 114.9374
   8.250   1.0571   0.02835   0.00887  -0.0386   0.0394   0.0500  87.8587 114.9374
   8.500   1.0730   0.02962   0.00974  -0.0370   0.0370   0.0500  88.2559 114.9374
   8.750   1.0892   0.03092   0.01064  -0.0355   0.0348   0.0500  88.6272 114.9374
   9.000   1.1045   0.03226   0.01147  -0.0341   0.0329   0.0500  88.9505 114.9374
   9.250   1.1212   0.03365   0.01253  -0.0326   0.0307   0.0500  89.3638 114.9374
   9.500   1.1368   0.03496   0.01349  -0.0313   0.0287   0.0500  89.7339 114.9374
   9.750   1.1514   0.03651   0.01448  -0.0299   0.0275   0.0500  89.9526 114.9374
  10.000   1.1671   0.03843   0.01598  -0.0285   0.0265   0.0500  90.1578 114.9374
  10.250   1.1815   0.04054   0.01770  -0.0270   0.0255   0.0500  90.3628 114.9374
  10.500   1.1936   0.04270   0.01946  -0.0254   0.0246   0.0500  90.5442 114.9374
  10.750   1.2019   0.04463   0.02101  -0.0234   0.0237   0.0500  90.7257 114.9374
  11.000   1.2078   0.04635   0.02230  -0.0214   0.0229   0.0500  90.8879 114.9374
  11.250   1.2117   0.04854   0.02398  -0.0194   0.0222   0.0500  91.0401 114.9374
  11.500   1.2071   0.05143   0.02675  -0.0168   0.0214   0.0500  91.2046 114.9374
  11.750   1.2009   0.05451   0.02961  -0.0148   0.0208   0.0500  91.3369 114.9374
  12.000   1.1921   0.05792   0.03276  -0.0132   0.0205   0.0500  91.4169 114.9374
  12.250   1.1806   0.06176   0.03634  -0.0122   0.0203   0.0500  91.4658 114.9374
  12.500   1.1662   0.06609   0.04043  -0.0120   0.0201   0.0500  91.4996 114.9374
  12.750   1.1494   0.07105   0.04522  -0.0128   0.0200   0.0500  91.5191 114.9374
  13.000   1.1298   0.07679   0.05087  -0.0147   0.0200   0.0500  91.5233 114.9374
  13.250   1.1075   0.08354   0.05766  -0.0179   0.0201   0.0500  91.5113 114.9374
  13.500   1.0823   0.09149   0.06586  -0.0224   0.0202   0.0500  91.4799 114.9374
  13.750   1.0538   0.10100   0.07596  -0.0284   0.0204   0.0500  91.4248 114.9374
  14.000   1.0217   0.11262   0.08873  -0.0361   0.0208   0.0500  91.3390 114.9374
  14.250   0.9860   0.12690   0.10499  -0.0451   0.0214   0.0500  91.2166 114.9374
  14.500   0.9549   0.14158   0.12224  -0.0531   0.0219   0.0500  91.1017 114.9374
  14.750   0.9331   0.15453   0.13797  -0.0592   0.0220   0.0500  91.0690 114.9374
  15.000   0.9223   0.16395   0.14975  -0.0635   0.0220   0.0500  91.0671 114.9374
