  
       XFOIL         Version 6.97
  
 Calculated polar for: NACA 0012                                       
  
 1 1 Reynolds number fixed          Mach number fixed         
  
 xtrf =   1.000 (top)        1.000 (bottom)  
 Mach =   0.000     Re =     0.834 e 6     Ncrit =   2.700
  
   alpha    CL        CD       CDp       CM     Top_Xtr  Bot_Xtr
  ------ -------- --------- --------- -------- -------- --------
 -17.000  -1.4241   0.04948   0.04497  -0.0277   1.0000   0.0088
 -16.900  -1.4266   0.04782   0.04326  -0.0284   1.0000   0.0088
 -16.800  -1.4291   0.04621   0.04160  -0.0291   1.0000   0.0088
 -16.700  -1.4311   0.04469   0.04003  -0.0297   1.0000   0.0089
 -16.600  -1.4326   0.04325   0.03855  -0.0302   1.0000   0.0089
 -16.500  -1.4337   0.04190   0.03715  -0.0306   1.0000   0.0089
 -16.400  -1.4345   0.04063   0.03583  -0.0310   1.0000   0.0090
 -16.300  -1.4349   0.03943   0.03459  -0.0312   1.0000   0.0090
 -16.200  -1.4350   0.03830   0.03342  -0.0314   1.0000   0.0091
 -16.100  -1.4347   0.03724   0.03232  -0.0316   1.0000   0.0091
 -16.000  -1.4341   0.03624   0.03129  -0.0317   1.0000   0.0092
 -15.900  -1.4332   0.03530   0.03030  -0.0317   1.0000   0.0092
 -15.800  -1.4321   0.03440   0.02937  -0.0316   1.0000   0.0093
 -15.700  -1.4307   0.03357   0.02850  -0.0315   1.0000   0.0093
 -15.600  -1.4292   0.03277   0.02766  -0.0314   1.0000   0.0094
 -15.500  -1.4273   0.03202   0.02688  -0.0312   1.0000   0.0095
 -15.400  -1.4252   0.03131   0.02613  -0.0309   1.0000   0.0095
 -15.300  -1.4229   0.03064   0.02543  -0.0306   1.0000   0.0096
 -15.200  -1.4205   0.03000   0.02476  -0.0303   1.0000   0.0096
 -15.100  -1.4178   0.02940   0.02412  -0.0299   1.0000   0.0097
 -15.000  -1.4150   0.02882   0.02351  -0.0294   1.0000   0.0098
 -14.900  -1.4119   0.02828   0.02294  -0.0290   1.0000   0.0098
 -14.800  -1.4087   0.02776   0.02239  -0.0285   1.0000   0.0099
 -14.700  -1.4054   0.02727   0.02187  -0.0280   1.0000   0.0100
 -14.600  -1.4018   0.02680   0.02136  -0.0274   1.0000   0.0100
 -14.500  -1.3981   0.02635   0.02088  -0.0269   1.0000   0.0101
 -14.400  -1.3943   0.02593   0.02042  -0.0263   1.0000   0.0102
 -14.300  -1.3903   0.02552   0.01999  -0.0256   1.0000   0.0103
 -14.200  -1.3861   0.02513   0.01957  -0.0250   1.0000   0.0103
 -14.100  -1.3818   0.02476   0.01917  -0.0243   1.0000   0.0104
 -14.000  -1.3773   0.02440   0.01878  -0.0237   1.0000   0.0105
 -13.900  -1.3727   0.02406   0.01841  -0.0230   1.0000   0.0106
 -13.800  -1.3680   0.02373   0.01806  -0.0223   1.0000   0.0106
 -13.700  -1.3632   0.02342   0.01772  -0.0216   1.0000   0.0107
 -13.600  -1.3583   0.02312   0.01739  -0.0208   1.0000   0.0108
 -13.500  -1.3532   0.02283   0.01707  -0.0201   1.0000   0.0109
 -13.400  -1.3480   0.02255   0.01677  -0.0193   1.0000   0.0109
 -13.300  -1.3426   0.02228   0.01647  -0.0186   1.0000   0.0110
 -13.200  -1.3368   0.02202   0.01618  -0.0179   1.0000   0.0111
 -13.100  -1.3305   0.02174   0.01588  -0.0174   1.0000   0.0112
 -13.000  -1.3240   0.02146   0.01558  -0.0168   1.0000   0.0113
 -12.900  -1.3172   0.02119   0.01529  -0.0163   1.0000   0.0114
 -12.800  -1.3103   0.02092   0.01501  -0.0158   1.0000   0.0116
 -12.700  -1.3032   0.02067   0.01474  -0.0153   1.0000   0.0117
 -12.600  -1.2960   0.02042   0.01447  -0.0149   1.0000   0.0119
 -12.500  -1.2886   0.02018   0.01421  -0.0144   1.0000   0.0120
 -12.400  -1.2810   0.01994   0.01396  -0.0140   1.0000   0.0122
 -12.300  -1.2733   0.01971   0.01371  -0.0136   1.0000   0.0124
 -12.200  -1.2655   0.01949   0.01347  -0.0131   1.0000   0.0125
 -12.100  -1.2576   0.01927   0.01323  -0.0127   1.0000   0.0127
 -12.000  -1.2496   0.01905   0.01299  -0.0124   1.0000   0.0129
 -11.900  -1.2415   0.01884   0.01276  -0.0120   1.0000   0.0130
 -11.800  -1.2333   0.01863   0.01254  -0.0116   1.0000   0.0132
 -11.700  -1.2250   0.01843   0.01231  -0.0112   1.0000   0.0133
 -11.600  -1.2167   0.01823   0.01210  -0.0109   1.0000   0.0134
 -11.500  -1.2082   0.01804   0.01188  -0.0105   1.0000   0.0135
 -11.400  -1.1997   0.01785   0.01168  -0.0102   1.0000   0.0137
 -11.300  -1.1913   0.01765   0.01146  -0.0098   1.0000   0.0138
 -11.200  -1.1829   0.01745   0.01125  -0.0095   1.0000   0.0140
 -11.100  -1.1743   0.01726   0.01104  -0.0091   1.0000   0.0142
 -11.000  -1.1657   0.01707   0.01084  -0.0088   1.0000   0.0144
 -10.900  -1.1571   0.01688   0.01064  -0.0084   1.0000   0.0146
 -10.800  -1.1483   0.01670   0.01045  -0.0081   1.0000   0.0148
 -10.700  -1.1396   0.01653   0.01026  -0.0078   1.0000   0.0150
 -10.600  -1.1307   0.01635   0.01008  -0.0074   1.0000   0.0152
 -10.500  -1.1219   0.01619   0.00990  -0.0071   1.0000   0.0154
 -10.400  -1.1130   0.01602   0.00973  -0.0068   1.0000   0.0157
 -10.300  -1.1041   0.01586   0.00955  -0.0065   1.0000   0.0160
 -10.200  -1.0951   0.01571   0.00938  -0.0061   1.0000   0.0162
 -10.100  -1.0861   0.01555   0.00922  -0.0058   1.0000   0.0165
 -10.000  -1.0772   0.01540   0.00905  -0.0055   1.0000   0.0167
  -9.900  -1.0684   0.01524   0.00888  -0.0051   1.0000   0.0170
  -9.800  -1.0595   0.01508   0.00872  -0.0047   1.0000   0.0173
  -9.700  -1.0507   0.01493   0.00856  -0.0044   1.0000   0.0176
  -9.600  -1.0418   0.01478   0.00841  -0.0040   1.0000   0.0179
  -9.500  -1.0330   0.01464   0.00826  -0.0036   1.0000   0.0182
  -9.400  -1.0241   0.01450   0.00811  -0.0033   1.0000   0.0185
  -9.300  -1.0153   0.01436   0.00797  -0.0029   1.0000   0.0188
  -9.200  -1.0065   0.01423   0.00782  -0.0025   1.0000   0.0191
  -9.100  -0.9977   0.01410   0.00768  -0.0020   1.0000   0.0194
  -9.000  -0.9888   0.01398   0.00755  -0.0016   1.0000   0.0196
  -8.900  -0.9773   0.01384   0.00740  -0.0018   0.9989   0.0200
  -8.800  -0.9658   0.01369   0.00725  -0.0020   0.9978   0.0204
  -8.700  -0.9541   0.01354   0.00710  -0.0022   0.9966   0.0209
  -8.600  -0.9424   0.01339   0.00695  -0.0025   0.9954   0.0215
  -8.500  -0.9305   0.01325   0.00681  -0.0027   0.9942   0.0221
  -8.400  -0.9185   0.01312   0.00667  -0.0030   0.9930   0.0226
  -8.300  -0.9063   0.01299   0.00653  -0.0033   0.9919   0.0232
  -8.200  -0.8948   0.01287   0.00640  -0.0035   0.9904   0.0236
  -8.100  -0.8834   0.01274   0.00627  -0.0036   0.9886   0.0241
  -8.000  -0.8719   0.01261   0.00614  -0.0038   0.9868   0.0246
  -7.900  -0.8601   0.01248   0.00601  -0.0040   0.9850   0.0252
  -7.800  -0.8481   0.01235   0.00589  -0.0042   0.9833   0.0259
  -7.700  -0.8359   0.01223   0.00577  -0.0045   0.9816   0.0266
  -7.600  -0.8238   0.01212   0.00564  -0.0048   0.9798   0.0273
  -7.500  -0.8126   0.01201   0.00553  -0.0049   0.9773   0.0280
  -7.400  -0.8011   0.01189   0.00541  -0.0050   0.9748   0.0288
  -7.300  -0.7893   0.01176   0.00529  -0.0052   0.9722   0.0298
  -7.200  -0.7773   0.01165   0.00518  -0.0054   0.9697   0.0307
  -7.100  -0.7650   0.01154   0.00507  -0.0057   0.9674   0.0316
  -7.000  -0.7538   0.01144   0.00497  -0.0058   0.9642   0.0324
  -6.900  -0.7424   0.01134   0.00487  -0.0059   0.9608   0.0331
  -6.800  -0.7309   0.01123   0.00475  -0.0060   0.9572   0.0342
  -6.700  -0.7192   0.01112   0.00464  -0.0061   0.9538   0.0355
  -6.600  -0.7081   0.01102   0.00454  -0.0061   0.9499   0.0367
  -6.500  -0.6971   0.01092   0.00445  -0.0061   0.9454   0.0380
  -6.400  -0.6859   0.01083   0.00435  -0.0061   0.9407   0.0391
  -6.300  -0.6750   0.01073   0.00425  -0.0061   0.9362   0.0404
  -6.200  -0.6644   0.01064   0.00416  -0.0060   0.9308   0.0417
  -6.100  -0.6538   0.01055   0.00406  -0.0058   0.9252   0.0432
  -6.000  -0.6432   0.01048   0.00397  -0.0057   0.9198   0.0447
  -5.900  -0.6326   0.01040   0.00389  -0.0056   0.9136   0.0461
  -5.800  -0.6223   0.01031   0.00380  -0.0054   0.9072   0.0481
  -5.700  -0.6119   0.01023   0.00371  -0.0052   0.9010   0.0500
  -5.600  -0.6014   0.01016   0.00362  -0.0050   0.8941   0.0518
  -5.400  -0.5807   0.01001   0.00346  -0.0047   0.8801   0.0557
  -5.300  -0.5704   0.00994   0.00337  -0.0045   0.8727   0.0582
  -5.200  -0.5599   0.00987   0.00329  -0.0043   0.8652   0.0608
  -5.100  -0.5494   0.00982   0.00322  -0.0041   0.8572   0.0628
  -5.000  -0.5390   0.00974   0.00314  -0.0040   0.8495   0.0656
  -4.900  -0.5286   0.00968   0.00306  -0.0038   0.8412   0.0686
  -4.800  -0.5180   0.00963   0.00299  -0.0037   0.8332   0.0714
  -4.700  -0.5076   0.00957   0.00292  -0.0035   0.8248   0.0746
  -4.600  -0.4971   0.00950   0.00284  -0.0034   0.8167   0.0782
  -4.500  -0.4865   0.00945   0.00277  -0.0032   0.8080   0.0816
  -4.400  -0.4759   0.00940   0.00271  -0.0031   0.7999   0.0851
  -4.300  -0.4654   0.00934   0.00263  -0.0029   0.7907   0.0896
  -4.200  -0.4548   0.00929   0.00257  -0.0028   0.7822   0.0935
  -4.100  -0.4442   0.00924   0.00251  -0.0027   0.7732   0.0978
  -4.000  -0.4336   0.00918   0.00245  -0.0026   0.7645   0.1029
  -3.900  -0.4230   0.00914   0.00238  -0.0025   0.7555   0.1074
  -3.800  -0.4123   0.00908   0.00232  -0.0024   0.7467   0.1125
  -3.700  -0.4017   0.00903   0.00227  -0.0022   0.7377   0.1181
  -3.600  -0.3909   0.00898   0.00221  -0.0022   0.7289   0.1233
  -3.500  -0.3803   0.00893   0.00216  -0.0020   0.7203   0.1294
  -3.400  -0.3696   0.00889   0.00210  -0.0020   0.7109   0.1355
  -3.300  -0.3589   0.00883   0.00205  -0.0019   0.7022   0.1422
  -3.200  -0.3482   0.00879   0.00200  -0.0018   0.6933   0.1491
  -3.100  -0.3375   0.00874   0.00195  -0.0017   0.6846   0.1556
  -3.000  -0.3267   0.00870   0.00191  -0.0016   0.6753   0.1628
  -2.900  -0.3160   0.00865   0.00186  -0.0015   0.6670   0.1699
  -2.800  -0.3052   0.00860   0.00182  -0.0014   0.6580   0.1777
  -2.700  -0.2944   0.00856   0.00177  -0.0014   0.6491   0.1855
  -2.600  -0.2837   0.00852   0.00173  -0.0013   0.6403   0.1937
  -2.500  -0.2728   0.00848   0.00169  -0.0012   0.6317   0.2011
  -2.400  -0.2620   0.00844   0.00166  -0.0012   0.6229   0.2097
  -2.300  -0.2512   0.00840   0.00162  -0.0011   0.6143   0.2179
  -2.200  -0.2404   0.00837   0.00159  -0.0010   0.6055   0.2262
  -2.100  -0.2296   0.00832   0.00155  -0.0010   0.5968   0.2359
  -1.900  -0.2079   0.00825   0.00149  -0.0008   0.5795   0.2525
  -1.700  -0.1861   0.00819   0.00144  -0.0007   0.5627   0.2707
  -1.500  -0.1643   0.00813   0.00139  -0.0006   0.5457   0.2884
  -1.400  -0.1534   0.00812   0.00137  -0.0006   0.5373   0.2962
  -1.300  -0.1424   0.00809   0.00135  -0.0005   0.5291   0.3058
  -1.200  -0.1316   0.00806   0.00133  -0.0005   0.5206   0.3147
  -1.100  -0.1206   0.00805   0.00132  -0.0005   0.5123   0.3232
  -1.000  -0.1097   0.00802   0.00130  -0.0004   0.5037   0.3330
  -0.900  -0.0987   0.00801   0.00129  -0.0004   0.4950   0.3408
  -0.800  -0.0878   0.00800   0.00128  -0.0003   0.4868   0.3499
  -0.700  -0.0768   0.00798   0.00127  -0.0003   0.4783   0.3587
  -0.600  -0.0659   0.00797   0.00126  -0.0002   0.4698   0.3675
  -0.500  -0.0549   0.00796   0.00125  -0.0002   0.4614   0.3759
  -0.400  -0.0439   0.00795   0.00124  -0.0002   0.4527   0.3851
  -0.300  -0.0329   0.00794   0.00124  -0.0001   0.4443   0.3934
  -0.200  -0.0220   0.00794   0.00123  -0.0001   0.4363   0.4020
  -0.100  -0.0110   0.00794   0.00123  -0.0000   0.4276   0.4106
   0.000  -0.0000   0.00794   0.00123   0.0000   0.4193   0.4193
   0.100   0.0110   0.00794   0.00123   0.0000   0.4107   0.4273
   0.200   0.0220   0.00794   0.00123   0.0001   0.4020   0.4362
   0.300   0.0329   0.00794   0.00124   0.0001   0.3932   0.4447
   0.400   0.0439   0.00795   0.00124   0.0002   0.3851   0.4531
   0.500   0.0549   0.00796   0.00125   0.0002   0.3758   0.4614
   0.600   0.0659   0.00797   0.00126   0.0002   0.3680   0.4699
   0.700   0.0768   0.00798   0.00127   0.0003   0.3588   0.4784
   0.800   0.0878   0.00800   0.00128   0.0003   0.3497   0.4864
   0.900   0.0987   0.00801   0.00129   0.0004   0.3413   0.4948
   1.000   0.1097   0.00803   0.00130   0.0004   0.3326   0.5034
   1.200   0.1316   0.00806   0.00133   0.0005   0.3153   0.5203
   1.300   0.1425   0.00809   0.00135   0.0005   0.3060   0.5287
   1.400   0.1535   0.00811   0.00137   0.0006   0.2969   0.5371
   1.500   0.1643   0.00814   0.00139   0.0006   0.2883   0.5455
   1.600   0.1752   0.00817   0.00142   0.0007   0.2787   0.5541
   1.700   0.1861   0.00819   0.00144   0.0007   0.2700   0.5623
   1.900   0.2079   0.00825   0.00149   0.0008   0.2528   0.5797
   2.100   0.2296   0.00832   0.00155   0.0010   0.2354   0.5970
   2.200   0.2404   0.00837   0.00159   0.0010   0.2264   0.6056
   2.300   0.2512   0.00840   0.00162   0.0011   0.2179   0.6144
   2.400   0.2620   0.00844   0.00166   0.0012   0.2097   0.6230
   2.500   0.2729   0.00847   0.00169   0.0012   0.2013   0.6317
   2.600   0.2836   0.00852   0.00174   0.0013   0.1929   0.6403
   2.700   0.2944   0.00856   0.00177   0.0014   0.1852   0.6491
   2.800   0.3052   0.00861   0.00182   0.0014   0.1774   0.6576
   2.900   0.3160   0.00865   0.00186   0.0015   0.1696   0.6668
   3.000   0.3267   0.00870   0.00191   0.0016   0.1629   0.6753
   3.100   0.3375   0.00874   0.00195   0.0017   0.1550   0.6844
   3.200   0.3482   0.00879   0.00200   0.0018   0.1489   0.6933
   3.300   0.3590   0.00883   0.00205   0.0019   0.1424   0.7022
   3.400   0.3696   0.00889   0.00210   0.0020   0.1356   0.7109
   3.500   0.3804   0.00893   0.00216   0.0020   0.1295   0.7200
   3.600   0.3910   0.00898   0.00221   0.0021   0.1236   0.7286
   3.800   0.4123   0.00908   0.00232   0.0024   0.1125   0.7472
   3.900   0.4230   0.00914   0.00238   0.0025   0.1073   0.7557
   4.000   0.4336   0.00917   0.00245   0.0026   0.1029   0.7648
   4.100   0.4442   0.00924   0.00251   0.0027   0.0976   0.7733
   4.200   0.4548   0.00929   0.00257   0.0028   0.0935   0.7822
   4.300   0.4655   0.00934   0.00263   0.0029   0.0895   0.7907
   4.400   0.4760   0.00940   0.00271   0.0031   0.0851   0.7995
   4.500   0.4865   0.00945   0.00277   0.0032   0.0817   0.8079
   4.600   0.4971   0.00950   0.00284   0.0034   0.0781   0.8168
   4.700   0.5076   0.00957   0.00292   0.0035   0.0744   0.8249
   4.800   0.5180   0.00963   0.00299   0.0037   0.0713   0.8336
   4.900   0.5286   0.00968   0.00306   0.0038   0.0686   0.8414
   5.000   0.5391   0.00974   0.00314   0.0040   0.0656   0.8496
   5.100   0.5494   0.00982   0.00322   0.0041   0.0627   0.8574
   5.200   0.5599   0.00988   0.00329   0.0043   0.0607   0.8652
   5.300   0.5704   0.00994   0.00337   0.0045   0.0583   0.8726
   5.400   0.5807   0.01001   0.00346   0.0047   0.0557   0.8800
   5.500   0.5911   0.01009   0.00354   0.0048   0.0534   0.8872
   5.600   0.6015   0.01016   0.00362   0.0050   0.0518   0.8940
   5.700   0.6119   0.01023   0.00371   0.0052   0.0501   0.9011
   5.800   0.6224   0.01030   0.00379   0.0054   0.0482   0.9074
   5.900   0.6327   0.01039   0.00389   0.0056   0.0463   0.9138
   6.000   0.6432   0.01047   0.00397   0.0057   0.0448   0.9199
   6.100   0.6538   0.01055   0.00406   0.0058   0.0432   0.9253
   6.200   0.6644   0.01064   0.00416   0.0059   0.0418   0.9309
   6.300   0.6751   0.01074   0.00425   0.0061   0.0404   0.9362
   6.400   0.6860   0.01084   0.00435   0.0061   0.0391   0.9406
   6.500   0.6971   0.01092   0.00445   0.0061   0.0380   0.9453
   6.600   0.7081   0.01102   0.00454   0.0061   0.0367   0.9498
   6.700   0.7193   0.01112   0.00464   0.0061   0.0354   0.9538
   6.800   0.7309   0.01123   0.00475   0.0060   0.0341   0.9573
   6.900   0.7424   0.01134   0.00487   0.0058   0.0331   0.9608
   7.000   0.7538   0.01144   0.00497   0.0058   0.0324   0.9643
   7.100   0.7650   0.01154   0.00507   0.0057   0.0316   0.9674
   7.200   0.7773   0.01165   0.00518   0.0054   0.0307   0.9697
   7.300   0.7893   0.01176   0.00529   0.0052   0.0298   0.9722
   7.400   0.8010   0.01189   0.00541   0.0050   0.0289   0.9747
   7.500   0.8125   0.01201   0.00553   0.0049   0.0280   0.9773
   7.600   0.8238   0.01212   0.00564   0.0048   0.0273   0.9798
   7.700   0.8358   0.01223   0.00577   0.0046   0.0266   0.9816
   7.800   0.8480   0.01235   0.00589   0.0043   0.0259   0.9833
   7.900   0.8601   0.01248   0.00601   0.0040   0.0252   0.9850
   8.000   0.8719   0.01261   0.00614   0.0038   0.0246   0.9869
   8.100   0.8834   0.01274   0.00627   0.0036   0.0241   0.9887
   8.200   0.8948   0.01287   0.00640   0.0035   0.0236   0.9904
   8.300   0.9062   0.01299   0.00653   0.0033   0.0232   0.9919
   8.400   0.9184   0.01312   0.00667   0.0030   0.0226   0.9930
   8.500   0.9304   0.01325   0.00681   0.0027   0.0221   0.9942
   8.600   0.9423   0.01339   0.00695   0.0025   0.0215   0.9954
   8.700   0.9541   0.01353   0.00710   0.0023   0.0209   0.9966
   8.800   0.9657   0.01369   0.00725   0.0020   0.0204   0.9978
   8.900   0.9772   0.01384   0.00740   0.0019   0.0200   0.9989
   9.000   0.9888   0.01397   0.00755   0.0017   0.0197   0.9999
   9.100   0.9977   0.01410   0.00768   0.0020   0.0194   1.0000
   9.200   1.0065   0.01423   0.00782   0.0025   0.0191   1.0000
   9.300   1.0153   0.01436   0.00796   0.0029   0.0188   1.0000
   9.400   1.0241   0.01450   0.00811   0.0033   0.0185   1.0000
   9.500   1.0330   0.01463   0.00825   0.0036   0.0182   1.0000
   9.600   1.0418   0.01478   0.00840   0.0040   0.0179   1.0000
   9.700   1.0507   0.01493   0.00856   0.0044   0.0176   1.0000
   9.800   1.0596   0.01508   0.00872   0.0047   0.0173   1.0000
   9.900   1.0684   0.01524   0.00888   0.0051   0.0170   1.0000
  10.000   1.0772   0.01540   0.00905   0.0055   0.0167   1.0000
  10.100   1.0862   0.01555   0.00922   0.0058   0.0165   1.0000
  10.200   1.0952   0.01571   0.00938   0.0061   0.0162   1.0000
  10.300   1.1041   0.01586   0.00955   0.0065   0.0160   1.0000
  10.400   1.1131   0.01602   0.00972   0.0068   0.0157   1.0000
  10.500   1.1220   0.01619   0.00990   0.0071   0.0154   1.0000
  10.600   1.1308   0.01635   0.01008   0.0074   0.0152   1.0000
  10.700   1.1396   0.01653   0.01026   0.0078   0.0150   1.0000
  10.800   1.1484   0.01670   0.01045   0.0081   0.0148   1.0000
  10.900   1.1572   0.01688   0.01064   0.0084   0.0145   1.0000
  11.000   1.1658   0.01706   0.01084   0.0087   0.0144   1.0000
  11.100   1.1745   0.01726   0.01104   0.0091   0.0142   1.0000
  11.200   1.1830   0.01745   0.01125   0.0094   0.0140   1.0000
  11.300   1.1915   0.01765   0.01146   0.0098   0.0138   1.0000
  11.400   1.1999   0.01785   0.01167   0.0101   0.0137   1.0000
  11.500   1.2084   0.01804   0.01188   0.0105   0.0135   1.0000
  11.600   1.2169   0.01823   0.01210   0.0108   0.0134   1.0000
  11.700   1.2252   0.01843   0.01231   0.0112   0.0133   1.0000
  11.800   1.2335   0.01863   0.01253   0.0116   0.0131   1.0000
  11.900   1.2417   0.01884   0.01276   0.0119   0.0130   1.0000
  12.000   1.2499   0.01905   0.01299   0.0123   0.0129   1.0000
  12.100   1.2579   0.01927   0.01323   0.0127   0.0127   1.0000
  12.200   1.2658   0.01949   0.01347   0.0131   0.0125   1.0000
  12.300   1.2736   0.01971   0.01371   0.0135   0.0124   1.0000
  12.400   1.2813   0.01994   0.01396   0.0139   0.0122   1.0000
  12.500   1.2889   0.02018   0.01421   0.0143   0.0120   1.0000
  12.600   1.2963   0.02042   0.01447   0.0148   0.0119   1.0000
  12.700   1.3036   0.02067   0.01474   0.0153   0.0117   1.0000
  12.800   1.3107   0.02093   0.01501   0.0157   0.0116   1.0000
  12.900   1.3176   0.02119   0.01529   0.0162   0.0114   1.0000
  13.000   1.3244   0.02146   0.01558   0.0167   0.0113   1.0000
  13.100   1.3309   0.02174   0.01588   0.0173   0.0112   1.0000
  13.200   1.3373   0.02202   0.01618   0.0178   0.0111   1.0000
  13.300   1.3432   0.02228   0.01647   0.0185   0.0110   1.0000
  13.400   1.3487   0.02255   0.01677   0.0192   0.0109   1.0000
  13.500   1.3539   0.02283   0.01707   0.0199   0.0109   1.0000
  13.600   1.3590   0.02312   0.01739   0.0207   0.0108   1.0000
  13.700   1.3640   0.02342   0.01772   0.0214   0.0107   1.0000
  13.800   1.3688   0.02373   0.01806   0.0221   0.0106   1.0000
  13.900   1.3735   0.02406   0.01841   0.0228   0.0106   1.0000
  14.000   1.3782   0.02440   0.01878   0.0235   0.0105   1.0000
  14.100   1.3826   0.02476   0.01917   0.0242   0.0104   1.0000
  14.200   1.3870   0.02513   0.01956   0.0248   0.0103   1.0000
  14.300   1.3912   0.02552   0.01998   0.0255   0.0103   1.0000
  14.400   1.3952   0.02592   0.02042   0.0261   0.0102   1.0000
  14.500   1.3991   0.02635   0.02087   0.0267   0.0101   1.0000
  14.600   1.4029   0.02679   0.02135   0.0273   0.0100   1.0000
  14.700   1.4065   0.02726   0.02185   0.0278   0.0100   1.0000
  14.800   1.4099   0.02775   0.02238   0.0283   0.0099   1.0000
  14.900   1.4131   0.02827   0.02292   0.0288   0.0098   1.0000
  15.000   1.4162   0.02881   0.02350   0.0293   0.0098   1.0000
  15.100   1.4191   0.02938   0.02410   0.0297   0.0097   1.0000
  15.200   1.4218   0.02998   0.02474   0.0300   0.0096   1.0000
  15.300   1.4243   0.03062   0.02541   0.0304   0.0096   1.0000
  15.400   1.4266   0.03129   0.02611   0.0307   0.0095   1.0000
  15.500   1.4287   0.03199   0.02685   0.0309   0.0094   1.0000
  15.600   1.4306   0.03274   0.02764   0.0311   0.0094   1.0000
  15.700   1.4323   0.03353   0.02846   0.0313   0.0093   1.0000
  15.800   1.4337   0.03437   0.02934   0.0314   0.0093   1.0000
  15.900   1.4348   0.03526   0.03026   0.0315   0.0092   1.0000
  16.000   1.4358   0.03620   0.03124   0.0314   0.0092   1.0000
  16.100   1.4364   0.03720   0.03228   0.0314   0.0091   1.0000
  16.200   1.4368   0.03826   0.03338   0.0312   0.0091   1.0000
  16.300   1.4367   0.03938   0.03455   0.0310   0.0090   1.0000
  16.400   1.4364   0.04057   0.03578   0.0307   0.0090   1.0000
  16.500   1.4357   0.04185   0.03710   0.0304   0.0089   1.0000
  16.600   1.4346   0.04320   0.03849   0.0299   0.0089   1.0000
  16.700   1.4331   0.04463   0.03997   0.0294   0.0088   1.0000
  16.800   1.4311   0.04616   0.04155   0.0288   0.0088   1.0000
  16.900   1.4290   0.04772   0.04316   0.0282   0.0088   1.0000
  17.000   1.4265   0.04938   0.04487   0.0275   0.0087   1.0000
