  
       XFOIL         Version 6.94
  
 Calculated polar for: NASA/LANGLEY LS(1)-0413 (GA(W)-2) AIRFOIL       
  
 1 1 Reynolds number fixed          Mach number fixed         
  
 xtrf =   1.000 (top)        1.000 (bottom)  
 Mach =   0.000     Re =     1.400 e 6     Ncrit =   9.000
  
  alpha     CL        CD       CDp       CM    Top_Xtr Bot_Xtr
 ------- -------- --------- --------- -------- ------- -------
 -15.000  -1.1888   0.02443   0.01952  -0.0784  1.0000  0.0028
 -14.750  -1.1873   0.02354   0.01858  -0.0758  1.0000  0.0028
 -14.500  -1.1841   0.02275   0.01775  -0.0735  1.0000  0.0028
 -14.250  -1.1572   0.02186   0.01682  -0.0751  0.9987  0.0029
 -14.000  -1.1298   0.02108   0.01600  -0.0765  0.9971  0.0029
 -13.750  -1.1016   0.02036   0.01524  -0.0779  0.9950  0.0030
 -13.500  -1.0725   0.01969   0.01455  -0.0794  0.9926  0.0031
 -13.250  -1.0420   0.01921   0.01403  -0.0808  0.9901  0.0034
 -13.000  -1.0202   0.01673   0.01162  -0.0828  0.9864  0.0076
 -12.750  -0.9873   0.01668   0.01172  -0.0842  0.9841  0.0093
 -12.500  -0.9543   0.01662   0.01173  -0.0857  0.9816  0.0099
 -12.250  -0.9211   0.01660   0.01179  -0.0872  0.9788  0.0103
 -12.000  -0.8880   0.01661   0.01186  -0.0886  0.9751  0.0106
 -11.750  -0.8610   0.01667   0.01198  -0.0887  0.9708  0.0109
 -11.500  -0.8329   0.01681   0.01218  -0.0889  0.9654  0.0111
 -11.250  -0.8053   0.01665   0.01202  -0.0893  0.9595  0.0112
 -11.000  -0.7775   0.01657   0.01191  -0.0896  0.9531  0.0114
 -10.750  -0.7484   0.01693   0.01236  -0.0900  0.9475  0.0116
 -10.500  -0.7195   0.01741   0.01292  -0.0902  0.9419  0.0117
 -10.250  -0.6903   0.01807   0.01367  -0.0905  0.9355  0.0119
 -10.000  -0.6615   0.01872   0.01440  -0.0906  0.9281  0.0120
  -9.750  -0.6321   0.01939   0.01515  -0.0910  0.9227  0.0122
  -9.500  -0.6021   0.02033   0.01621  -0.0914  0.9181  0.0123
  -9.250  -0.5769   0.02006   0.01588  -0.0920  0.9123  0.0139
  -9.000  -0.5523   0.01903   0.01471  -0.0921  0.9060  0.0138
  -8.750  -0.5269   0.01804   0.01360  -0.0924  0.8994  0.0137
  -8.500  -0.5008   0.01703   0.01250  -0.0927  0.8958  0.0137
  -8.250  -0.4748   0.01590   0.01126  -0.0930  0.8911  0.0138
  -8.000  -0.4486   0.01479   0.00999  -0.0933  0.8860  0.0139
  -7.750  -0.4215   0.01411   0.00922  -0.0936  0.8805  0.0138
  -7.500  -0.3939   0.01346   0.00849  -0.0939  0.8745  0.0137
  -7.250  -0.3658   0.01281   0.00779  -0.0943  0.8716  0.0137
  -7.000  -0.3375   0.01219   0.00712  -0.0948  0.8677  0.0136
  -6.750  -0.3090   0.01153   0.00640  -0.0953  0.8632  0.0136
  -6.500  -0.2804   0.01073   0.00550  -0.0959  0.8585  0.0140
  -6.250  -0.2511   0.01010   0.00477  -0.0966  0.8532  0.0144
  -6.000  -0.2211   0.00964   0.00424  -0.0974  0.8488  0.0147
  -5.750  -0.1909   0.00927   0.00383  -0.0981  0.8459  0.0147
  -5.500  -0.1606   0.00895   0.00346  -0.0988  0.8425  0.0146
  -5.250  -0.1303   0.00866   0.00310  -0.0995  0.8384  0.0146
  -5.000  -0.1000   0.00839   0.00275  -0.1001  0.8339  0.0149
  -4.750  -0.0693   0.00812   0.00240  -0.1007  0.8286  0.0189
  -4.500  -0.0392   0.00800   0.00232  -0.1013  0.8241  0.0226
  -4.250  -0.0090   0.00788   0.00223  -0.1019  0.8219  0.0245
  -4.000   0.0211   0.00778   0.00216  -0.1025  0.8191  0.0253
  -3.750   0.0517   0.00760   0.00203  -0.1032  0.8161  0.0347
  -3.500   0.0820   0.00745   0.00192  -0.1039  0.8126  0.0438
  -3.250   0.1123   0.00730   0.00182  -0.1045  0.8079  0.0616
  -3.000   0.1430   0.00708   0.00171  -0.1054  0.8008  0.1015
  -2.750   0.1747   0.00671   0.00159  -0.1066  0.7970  0.1717
  -2.500   0.2071   0.00626   0.00147  -0.1080  0.7929  0.2711
  -2.250   0.2392   0.00586   0.00136  -0.1094  0.7867  0.3660
  -2.000   0.2715   0.00544   0.00126  -0.1108  0.7796  0.4785
  -1.750   0.3034   0.00515   0.00127  -0.1119  0.7740  0.5822
  -1.500   0.3338   0.00509   0.00131  -0.1125  0.7703  0.6213
  -1.250   0.3637   0.00509   0.00137  -0.1128  0.7645  0.6470
  -1.000   0.3932   0.00512   0.00140  -0.1131  0.7577  0.6592
  -0.750   0.4225   0.00520   0.00145  -0.1134  0.7503  0.6688
  -0.500   0.4524   0.00522   0.00146  -0.1137  0.7437  0.6731
  -0.250   0.4817   0.00527   0.00146  -0.1140  0.7320  0.6749
   0.000   0.5109   0.00530   0.00146  -0.1143  0.7187  0.6786
   0.250   0.5403   0.00532   0.00148  -0.1146  0.7082  0.6835
   0.500   0.5695   0.00539   0.00151  -0.1148  0.6979  0.6873
   0.750   0.5989   0.00543   0.00154  -0.1151  0.6872  0.6904
   1.000   0.6277   0.00554   0.00158  -0.1153  0.6732  0.6934
   1.250   0.6567   0.00563   0.00163  -0.1156  0.6555  0.6964
   1.500   0.6846   0.00583   0.00170  -0.1156  0.6257  0.6987
   2.000   0.7348   0.00683   0.00207  -0.1148  0.4775  0.7049
   2.250   0.7595   0.00739   0.00235  -0.1144  0.4052  0.7096
   2.500   0.7847   0.00787   0.00259  -0.1141  0.3483  0.7135
   2.750   0.8094   0.00840   0.00284  -0.1137  0.2874  0.7166
   3.000   0.8350   0.00882   0.00307  -0.1134  0.2444  0.7190
   3.250   0.8608   0.00921   0.00328  -0.1132  0.2082  0.7211
   3.500   0.8867   0.00957   0.00349  -0.1130  0.1791  0.7230
   3.750   0.9134   0.00984   0.00367  -0.1129  0.1625  0.7246
   4.000   0.9401   0.01007   0.00388  -0.1128  0.1477  0.7279
   4.250   0.9662   0.01036   0.00408  -0.1126  0.1308  0.7318
   4.500   0.9923   0.01064   0.00429  -0.1124  0.1154  0.7349
   4.750   1.0181   0.01095   0.00452  -0.1121  0.0996  0.7379
   5.000   1.0448   0.01115   0.00471  -0.1120  0.0956  0.7410
   5.250   1.0702   0.01147   0.00495  -0.1117  0.0851  0.7439
   5.500   1.0960   0.01175   0.00518  -0.1114  0.0746  0.7464
   5.750   1.1225   0.01195   0.00537  -0.1112  0.0728  0.7485
   6.000   1.1486   0.01217   0.00558  -0.1110  0.0700  0.7501
   6.250   1.1740   0.01242   0.00580  -0.1107  0.0651  0.7550
   6.500   1.1987   0.01273   0.00608  -0.1102  0.0591  0.7591
   6.750   1.2237   0.01301   0.00634  -0.1098  0.0525  0.7627
   7.000   1.2478   0.01334   0.00668  -0.1093  0.0460  0.7662
   7.250   1.2704   0.01379   0.00703  -0.1085  0.0395  0.7695
   7.500   1.2943   0.01412   0.00734  -0.1079  0.0362  0.7725
   7.750   1.3175   0.01449   0.00768  -0.1072  0.0326  0.7749
   8.000   1.3391   0.01495   0.00809  -0.1063  0.0266  0.7805
   8.250   1.3620   0.01529   0.00844  -0.1055  0.0237  0.7853
   8.500   1.3842   0.01567   0.00882  -0.1047  0.0217  0.7897
   8.750   1.4054   0.01610   0.00924  -0.1036  0.0192  0.7937
   9.000   1.4258   0.01656   0.00968  -0.1025  0.0165  0.7972
   9.250   1.4462   0.01698   0.01008  -0.1013  0.0139  0.7998
   9.500   1.4664   0.01733   0.01046  -0.1001  0.0124  0.8057
   9.750   1.4857   0.01772   0.01089  -0.0987  0.0118  0.8109
  10.000   1.5028   0.01809   0.01133  -0.0969  0.0120  0.8158
  10.250   1.5195   0.01854   0.01181  -0.0951  0.0115  0.8204
  10.500   1.5361   0.01906   0.01235  -0.0933  0.0106  0.8241
  10.750   1.5487   0.01987   0.01316  -0.0910  0.0077  0.8302
  11.000   1.5595   0.02082   0.01410  -0.0885  0.0048  0.8366
  11.250   1.5750   0.02147   0.01477  -0.0868  0.0045  0.8426
  11.500   1.5892   0.02220   0.01552  -0.0849  0.0041  0.8480
  11.750   1.6035   0.02292   0.01628  -0.0832  0.0037  0.8548
  12.000   1.6172   0.02367   0.01709  -0.0814  0.0033  0.8629
  12.250   1.6308   0.02447   0.01792  -0.0796  0.0029  0.8707
  12.500   1.6446   0.02526   0.01878  -0.0779  0.0025  0.8794
  12.750   1.6574   0.02608   0.01967  -0.0762  0.0022  0.8914
  13.000   1.6696   0.02693   0.02059  -0.0744  0.0021  0.9067
  13.250   1.6770   0.02768   0.02148  -0.0716  0.0021  0.9600
  13.500   1.6882   0.02867   0.02253  -0.0700  0.0021  1.0000
  13.750   1.7001   0.02974   0.02364  -0.0685  0.0021  1.0000
  14.000   1.7107   0.03091   0.02485  -0.0669  0.0021  1.0000
  14.250   1.7213   0.03210   0.02610  -0.0655  0.0021  1.0000
  14.500   1.7304   0.03342   0.02748  -0.0640  0.0021  1.0000
  14.750   1.7391   0.03477   0.02889  -0.0624  0.0021  1.0000
  15.000   1.7465   0.03626   0.03046  -0.0609  0.0020  1.0000
  15.250   1.7536   0.03781   0.03208  -0.0595  0.0020  1.0000
  15.500   1.7595   0.03952   0.03385  -0.0581  0.0020  1.0000
  15.750   1.7650   0.04129   0.03569  -0.0568  0.0020  1.0000
  16.000   1.7688   0.04325   0.03774  -0.0555  0.0020  1.0000
  16.250   1.7726   0.04527   0.03983  -0.0543  0.0020  1.0000
  16.500   1.7740   0.04756   0.04221  -0.0531  0.0020  1.0000
  16.750   1.7758   0.04990   0.04463  -0.0522  0.0020  1.0000
  17.000   1.7756   0.05257   0.04740  -0.0513  0.0020  1.0000
  17.250   1.7745   0.05542   0.05035  -0.0507  0.0020  1.0000
  17.500   1.7728   0.05843   0.05346  -0.0502  0.0020  1.0000
  17.750   1.7688   0.06183   0.05697  -0.0500  0.0020  1.0000
  18.000   1.7629   0.06558   0.06082  -0.0500  0.0020  1.0000
  18.250   1.7556   0.06962   0.06498  -0.0502  0.0020  1.0000
  18.500   1.7462   0.07414   0.06963  -0.0509  0.0020  1.0000
  18.750   1.7346   0.07917   0.07479  -0.0519  0.0020  1.0000
  19.000   1.7205   0.08478   0.08053  -0.0535  0.0020  1.0000
  19.250   1.7038   0.09097   0.08687  -0.0555  0.0020  1.0000
  19.500   1.6817   0.09825   0.09431  -0.0583  0.0020  1.0000
  19.750   1.6561   0.10635   0.10258  -0.0618  0.0020  1.0000
  20.000   1.6256   0.11565   0.11205  -0.0662  0.0020  1.0000
  20.250   1.5872   0.12676   0.12337  -0.0720  0.0020  1.0000
  20.500   1.5383   0.14026   0.13710  -0.0795  0.0020  1.0000
  20.750   1.4798   0.15636   0.15344  -0.0890  0.0020  1.0000
  21.000   1.4100   0.17620   0.17356  -0.1016  0.0020  1.0000
  21.250   1.3340   0.19968   0.19733  -0.1174  0.0020  1.0000
  21.500   1.2763   0.22115   0.21903  -0.1321  0.0020  1.0000
  21.750   1.2763   0.22604   0.22397  -0.1356  0.0020  1.0000
  22.000   1.2775   0.23060   0.22856  -0.1389  0.0020  1.0000
