       XFOIL         Version 6.99
  
 Calculated polar for: JWRA-JTT airfoil                                
  
 1 1 Reynolds number fixed          Mach number fixed         
  
 xtrf =   0.350 (top)        0.350 (bottom)  
 Mach =   0.350     Re =  1/0.625 e 6     Ncrit =   5.000  5.000
  	      Re = 1E6                       Re = 0.625E6
   deltaF alpha0     CM0       CD0      alpha0     CM0       CD0      
  ------ -------- --------- --------- --------- -------- --------- 
  15.000 -10.6290 -0.192300 0.0139000 -10.52400 -0.18940 0.0155300 
  10.000 -7.56400 -0.142500 0.0116200 -7.534000 -0.14200 0.0125300
  0.0000 -1.11800 -0.030500 0.0091100 -1.107000 -0.03020 0.0101400  
  -10.00 5.449000 0.0877000 0.0094700 5.4400000 0.087500 0.0105600
  -15.00 8.678000 0.1435000 0.0112900 8.6670000 0.144100 0.0121000

