       XFOIL         Version 6.99
  
 Calculated polar for: JWRA-JWT airfoil                                
  
 1 1 Reynolds number fixed          Mach number fixed         
  
 xtrf =   0.350 (top)        0.350 (bottom)  
 Mach =   0.350     Re =  0.625/1.000 e 6     Ncrit =   5.000  5.000
  	      Re = 1E6                       Re = 0.625E6
   deltaF alpha0     CM0       CD0      alpha0     CM0       CD0      
  ------ -------- --------- --------- --------- -------- --------- 
  15.000 -10.6620 -0.203200 0.0216900 -10.35800 -0.19450 0.0250000
  10.000 -9.04400 -0.183200 0.0149000 -8.967000 -0.17940 0.0167600
  0.0000 -3.01050 -0.080200 0.0106000 -2.986000 -0.08030 0.0109700
  -10.00  3.50500 0.0367000 0.0100900 3.5200000 0.037800 0.0107000
  -15.00  6.79070 0.0971000 0.0111700 6.7890000 0.097600 0.0124700

