       XFOIL         Version 6.99
  
 Calculated polar for: JWRA - JTT airfoil                              
  
 1 1 Reynolds number fixed          Mach number fixed         
  
 xtrf =   0.350 (top)        0.350 (bottom)  
 Mach =   0.350     Re =     1.000 e 6     Ncrit =   5.000  5.000
  
   alpha    CL        CD       CDp       CM     Top_Xtr  Bot_Xtr  Top_Itr  Bot_Itr
  ------ -------- --------- --------- -------- -------- -------- -------- --------
 -15.000  -0.8331   0.15263   0.12757   0.0378   0.3500   0.0074  23.3319  52.9320
 -14.750  -0.8671   0.13951   0.10671   0.0302   0.3500   0.0075  23.3319  52.9727
 -14.500  -0.8962   0.12849   0.09028   0.0240   0.3500   0.0075  23.3319  52.9906
 -14.250  -0.9228   0.11845   0.07616   0.0186   0.3500   0.0075  23.3319  53.0014
 -14.000  -0.9466   0.10919   0.06391   0.0137   0.3500   0.0076  23.3319  53.0124
 -13.750  -0.9687   0.10028   0.05269   0.0089   0.3500   0.0076  23.3319  53.0210
 -13.500  -0.9887   0.09185   0.04260   0.0041   0.3500   0.0076  23.3319  53.0301
 -13.250  -1.0070   0.08395   0.03353  -0.0006   0.3500   0.0076  23.3319  53.0413
 -13.000  -1.0238   0.07660   0.02542  -0.0050   0.3500   0.0077  23.3319  53.0551
 -12.750  -1.0395   0.06993   0.01831  -0.0090   0.3500   0.0077  23.3319  53.0719
 -12.500  -1.0541   0.06372   0.01192  -0.0126   0.3500   0.0078  23.3319  53.0917
 -12.250  -1.0671   0.05808   0.00633  -0.0156   0.3500   0.0078  23.3319  53.1158
 -12.000  -1.0783   0.05289   0.00140  -0.0182   0.3500   0.0079  23.3319  53.1450
 -11.750  -1.0881   0.04813  -0.00292  -0.0202   0.3500   0.0080  23.3319  53.1791
 -11.500  -1.0957   0.04380  -0.00662  -0.0218   0.3500   0.0081  23.3319  53.2199
 -11.250  -1.1015   0.03987  -0.00978  -0.0228   0.3500   0.0082  23.3319  53.2661
 -11.000  -1.1053   0.03626  -0.01247  -0.0234   0.3500   0.0083  23.3319  53.3163
 -10.750  -1.1075   0.03299  -0.01474  -0.0234   0.3500   0.0084  23.3319  53.3658
 -10.500  -1.1091   0.02998  -0.01669  -0.0229   0.3500   0.0085  23.3319  53.4037
 -10.250  -1.1128   0.02756  -0.01811  -0.0212   0.3500   0.0086  23.3319  53.4382
 -10.000  -1.1039   0.02546  -0.01866  -0.0200   0.3500   0.0088  23.3319  53.4945
  -9.750  -1.0888   0.02366  -0.01865  -0.0189   0.3500   0.0089  23.3319  53.5725
  -9.500  -1.0693   0.02213  -0.01824  -0.0179   0.3500   0.0092  23.3319  53.6764
  -9.250  -1.0463   0.02082  -0.01754  -0.0172   0.3500   0.0095  23.3319  53.8064
  -9.000  -1.0207   0.01971  -0.01662  -0.0167   0.3500   0.0099  23.3319  53.9507
  -8.750  -0.9937   0.01868  -0.01567  -0.0164   0.3500   0.0105  23.3319  54.0991
  -8.500  -0.9645   0.01789  -0.01448  -0.0162   0.3500   0.0113  23.3319  54.2681
  -8.250  -0.9342   0.01724  -0.01327  -0.0161   0.3500   0.0123  23.3319  54.4671
  -8.000  -0.9033   0.01665  -0.01213  -0.0161   0.3500   0.0135  23.3319  54.6902
  -7.750  -0.8719   0.01612  -0.01105  -0.0161   0.3500   0.0145  23.3319  54.8954
  -7.500  -0.8402   0.01561  -0.01004  -0.0162   0.3500   0.0154  23.3319  55.0838
  -7.250  -0.8082   0.01515  -0.00908  -0.0164   0.3500   0.0169  23.3319  55.3703
  -7.000  -0.7759   0.01475  -0.00817  -0.0166   0.3500   0.0183  23.3319  55.6573
  -6.750  -0.7434   0.01440  -0.00734  -0.0169   0.3500   0.0196  23.3319  55.9049
  -6.500  -0.7108   0.01402  -0.00660  -0.0172   0.3500   0.0208  23.3319  56.1626
  -6.250  -0.6781   0.01367  -0.00591  -0.0176   0.3500   0.0226  23.3319  56.5112
  -6.000  -0.6453   0.01339  -0.00526  -0.0179   0.3500   0.0248  23.3319  56.9431
  -5.750  -0.6125   0.01306  -0.00471  -0.0184   0.3500   0.0271  23.3319  57.4162
  -5.500  -0.5796   0.01280  -0.00419  -0.0188   0.3500   0.0292  23.3319  57.8371
  -5.250  -0.5466   0.01254  -0.00374  -0.0193   0.3500   0.0325  23.3319  58.2464
  -5.000  -0.5136   0.01227  -0.00334  -0.0198   0.3500   0.0369  23.3319  58.6911
  -4.750  -0.4806   0.01205  -0.00297  -0.0203   0.3500   0.0421  23.3319  59.2089
  -4.500  -0.4476   0.01177  -0.00267  -0.0209   0.3500   0.0529  23.3319  60.2872
  -4.250  -0.4145   0.01146  -0.00242  -0.0216   0.3500   0.0726  23.3319  62.2560
  -4.000  -0.3813   0.01112  -0.00222  -0.0224   0.3500   0.0977  23.3319  64.7692
  -3.750  -0.3480   0.01072  -0.00207  -0.0233   0.3500   0.1376  23.3319  66.8794
  -3.500  -0.3146   0.01025  -0.00197  -0.0243   0.3500   0.1951  23.3319  69.7520
  -3.250  -0.2811   0.00985  -0.00187  -0.0253   0.3500   0.2482  23.3319  72.4073
  -3.000  -0.2476   0.00947  -0.00177  -0.0263   0.3500   0.3012  23.3319  75.0391
  -2.750  -0.2142   0.00916  -0.00166  -0.0272   0.3500   0.3500  23.3319  76.6646
  -2.500  -0.1813   0.00914  -0.00150  -0.0277   0.3500   0.3500  23.3319  76.6646
  -2.250  -0.1484   0.00913  -0.00137  -0.0282   0.3500   0.3500  23.3319  76.6646
  -2.000  -0.1156   0.00912  -0.00125  -0.0287   0.3500   0.3500  23.3319  76.6646
  -1.750  -0.0828   0.00911  -0.00115  -0.0292   0.3500   0.3500  23.3319  76.6646
  -1.500  -0.0500   0.00911  -0.00107  -0.0297   0.3500   0.3500  23.3319  76.6646
  -1.250  -0.0173   0.00911  -0.00101  -0.0303   0.3500   0.3500  23.3319  76.6646
  -1.000   0.0155   0.00911  -0.00095  -0.0308   0.3500   0.3500  23.3319  76.6646
  -0.750   0.0482   0.00911  -0.00091  -0.0313   0.3500   0.3500  23.3319  76.6646
  -0.500   0.0809   0.00911  -0.00089  -0.0318   0.3500   0.3500  23.3319  76.6646
  -0.250   0.1136   0.00912  -0.00087  -0.0324   0.3500   0.3500  23.3319  76.6646
   0.000   0.1462   0.00912  -0.00087  -0.0329   0.3500   0.3500  23.3319  76.6646
   0.250   0.1789   0.00914  -0.00088  -0.0334   0.3500   0.3500  23.3319  76.6646
   0.500   0.2116   0.00915  -0.00091  -0.0339   0.3500   0.3500  23.3319  76.6646
   0.750   0.2443   0.00916  -0.00095  -0.0345   0.3500   0.3500  23.3319  76.6646
   1.000   0.2770   0.00918  -0.00100  -0.0350   0.3500   0.3500  23.3319  76.6646
   1.250   0.3097   0.00920  -0.00106  -0.0355   0.3500   0.3500  23.3319  76.6646
   1.500   0.3424   0.00922  -0.00114  -0.0360   0.3500   0.3500  23.3319  76.6646
   1.750   0.3751   0.00924  -0.00124  -0.0365   0.3500   0.3500  23.3319  76.6646
   2.000   0.4078   0.00927  -0.00135  -0.0370   0.3500   0.3500  23.3319  76.6646
   2.250   0.4406   0.00929  -0.00148  -0.0375   0.3500   0.3500  23.3319  76.6646
   2.500   0.4734   0.00932  -0.00163  -0.0379   0.3500   0.3500  23.3319  76.6646
   2.750   0.5062   0.00936  -0.00181  -0.0384   0.3500   0.3500  23.3319  76.6646
   3.000   0.5390   0.00939  -0.00201  -0.0388   0.3500   0.3500  23.3319  76.6646
   3.250   0.5716   0.00960  -0.00219  -0.0394   0.3292   0.3500  24.0242  76.6646
   3.500   0.6037   0.01002  -0.00231  -0.0400   0.2807   0.3500  25.9611  76.6646
   3.750   0.6352   0.01064  -0.00235  -0.0407   0.2165   0.3500  29.1737  76.6646
   4.000   0.6667   0.01120  -0.00244  -0.0413   0.1627   0.3500  31.8624  76.6646
   4.250   0.6981   0.01172  -0.00257  -0.0418   0.1187   0.3500  34.0659  76.6646
   4.500   0.7298   0.01212  -0.00280  -0.0422   0.0918   0.3500  35.8159  76.6646
   4.750   0.7610   0.01257  -0.00303  -0.0426   0.0678   0.3500  38.2136  76.6646
   5.000   0.7923   0.01299  -0.00333  -0.0429   0.0496   0.3500  40.0351  76.6646
   5.250   0.8238   0.01333  -0.00371  -0.0431   0.0390   0.3500  41.1024  76.6646
   5.500   0.8553   0.01365  -0.00416  -0.0433   0.0342   0.3500  41.5820  76.6646
   5.750   0.8866   0.01399  -0.00465  -0.0434   0.0299   0.3500  42.0131  76.6646
   6.000   0.9180   0.01429  -0.00523  -0.0435   0.0277   0.3500  42.4583  76.6646
   6.250   0.9487   0.01470  -0.00581  -0.0435   0.0250   0.3500  43.0047  76.6646
   6.500   0.9797   0.01504  -0.00651  -0.0435   0.0224   0.3500  43.5244  76.6646
   6.750   1.0099   0.01547  -0.00724  -0.0434   0.0195   0.3500  44.0916  76.6646
   7.000   1.0401   0.01589  -0.00804  -0.0432   0.0175   0.3500  44.5000  76.6646
   7.250   1.0696   0.01637  -0.00888  -0.0429   0.0157   0.3500  44.8560  76.6646
   7.500   1.0986   0.01690  -0.00977  -0.0425   0.0146   0.3500  45.0709  76.6646
   7.750   1.1271   0.01744  -0.01071  -0.0420   0.0139   0.3500  45.2205  76.6646
   8.000   1.1548   0.01804  -0.01168  -0.0414   0.0131   0.3500  45.3747  76.6646
   8.250   1.1814   0.01871  -0.01268  -0.0406   0.0124   0.3500  45.5195  76.6646
   8.500   1.2066   0.01944  -0.01370  -0.0397   0.0117   0.3500  45.6515  76.6646
   8.750   1.2301   0.02026  -0.01468  -0.0385   0.0111   0.3500  45.7705  76.6646
   9.000   1.2507   0.02125  -0.01553  -0.0370   0.0106   0.3500  45.8832  76.6646
   9.250   1.2658   0.02252  -0.01601  -0.0349   0.0101   0.3500  45.9883  76.6646
   9.500   1.2787   0.02370  -0.01653  -0.0326   0.0098   0.3500  46.0650  76.6646
   9.750   1.2826   0.02508  -0.01659  -0.0294   0.0097   0.3500  46.1330  76.6646
  10.000   1.2893   0.02689  -0.01638  -0.0274   0.0095   0.3500  46.2105  76.6646
  10.250   1.2958   0.02894  -0.01596  -0.0258   0.0093   0.3500  46.2876  76.6646
  10.500   1.3008   0.03122  -0.01529  -0.0244   0.0091   0.3500  46.3604  76.6646
  10.750   1.3043   0.03374  -0.01433  -0.0232   0.0089   0.3500  46.4230  76.6646
  11.000   1.3057   0.03650  -0.01304  -0.0221   0.0088   0.3500  46.4759  76.6646
  11.250   1.3053   0.03954  -0.01139  -0.0213   0.0087   0.3500  46.5207  76.6646
  11.500   1.3032   0.04280  -0.00940  -0.0206   0.0086   0.3500  46.5663  76.6646
  11.750   1.3004   0.04624  -0.00719  -0.0203   0.0084   0.3500  46.6227  76.6646
  12.000   1.2966   0.04988  -0.00471  -0.0202   0.0083   0.3500  46.6814  76.6646
  12.250   1.2913   0.05377  -0.00187  -0.0205   0.0082   0.3500  46.7368  76.6646
  12.500   1.2846   0.05798   0.00140  -0.0211   0.0080   0.3500  46.7869  76.6646
  12.750   1.2763   0.06248   0.00512  -0.0220   0.0079   0.3500  46.8308  76.6646
  13.000   1.2664   0.06744   0.00950  -0.0234   0.0078   0.3500  46.8629  76.6646
  13.250   1.2560   0.07272   0.01430  -0.0253   0.0078   0.3500  46.8974  76.6646
  13.500   1.2441   0.07839   0.01971  -0.0275   0.0077   0.3500  46.9276  76.6646
  13.750   1.2311   0.08450   0.02580  -0.0302   0.0076   0.3500  46.9544  76.6646
  14.000   1.2167   0.09102   0.03260  -0.0332   0.0076   0.3500  46.9781  76.6646
  14.250   1.2010   0.09796   0.04019  -0.0366   0.0075   0.3500  46.9989  76.6646
  14.500   1.1833   0.10549   0.04896  -0.0405   0.0075   0.3500  47.0156  76.6646
  14.750   1.1650   0.11344   0.05867  -0.0448   0.0074   0.3500  47.0297  76.6646
  15.000   1.1463   0.12172   0.06929  -0.0494   0.0074   0.3500  47.0416  76.6646
  15.250   1.1275   0.13034   0.08098  -0.0543   0.0074   0.3500  47.0523  76.6646
  15.500   1.1084   0.13927   0.09385  -0.0595   0.0073   0.3500  47.0622  76.6646
  15.750   1.0889   0.14853   0.10800  -0.0650   0.0073   0.3500  47.0732  76.6646
  16.000   1.0680   0.15854   0.12432  -0.0711   0.0073   0.3500  47.0891  76.6646
  16.250   1.0444   0.16973   0.14380  -0.0781   0.0072   0.3500  47.1094  76.6646
  16.500   1.0107   0.18469   0.17184  -0.0876   0.0071   0.3500  47.1691  76.6646
  16.750   0.9773   0.20233   0.20611  -0.0982   0.0066   0.3500  47.3559  76.6646
  17.000   0.9737   0.21107   0.22251  -0.1034   0.0063   0.3500  47.4697  76.6646
  17.250   0.9764   0.21753   0.23458  -0.1073   0.0061   0.3500  47.5604  76.6646
  17.500   0.9817   0.22301   0.24488  -0.1107   0.0059   0.3500  47.6420  76.6646
  17.750   0.9884   0.22788   0.25410  -0.1138   0.0057   0.3500  47.7240  76.6646
  18.000   0.9960   0.23234   0.26261  -0.1167   0.0055   0.3500  47.7949  76.6646
  18.250   1.0043   0.23647   0.27056  -0.1196   0.0054   0.3500  47.8577  76.6646
  18.500   1.0130   0.24036   0.27813  -0.1223   0.0052   0.3500  47.9130  76.6646
  18.750   1.0219   0.24416   0.28562  -0.1250   0.0051   0.3500  47.9651  76.6646
  19.000   1.0296   0.24876   0.29501  -0.1281   0.0050   0.3500  48.0226  76.6646
  19.250   1.0352   0.25522   0.30879  -0.1319   0.0045   0.3500  48.1901  76.6646
  19.500   1.0425   0.26073   0.32056  -0.1353   0.0038   0.3500  48.4747  76.6646
  19.750   1.0512   0.26508   0.32987  -0.1383   0.0032   0.3500  48.7136  76.6646
  20.000   1.0606   0.26886   0.33806  -0.1410   0.0028   0.3500  48.8554  76.6646
