       XFOIL         Version 6.99
  
 Calculated polar for: JWRA-JWR airfoil                                
  
 1 1 Reynolds number fixed          Mach number fixed         
  
 xtrf =   0.350 (top)        0.350 (bottom)  
 Mach =   0.350     Re =     1.000 e 6     Ncrit =   5.000  5.000
  
   alpha    CL        CD       CDp       CM     Top_Xtr  Bot_Xtr  Top_Itr  Bot_Itr
  ------ -------- --------- --------- -------- -------- -------- -------- --------
 -14.750  -0.4942   0.16978   0.16406  -0.0106   0.3500   0.0108  23.3323  54.1690
 -14.500  -0.4848   0.16691   0.16014  -0.0122   0.3500   0.0112  23.3323  54.2401
 -14.250  -0.4761   0.16373   0.15577  -0.0139   0.3500   0.0116  23.3323  54.3159
 -14.000  -0.4681   0.16019   0.15094  -0.0157   0.3500   0.0118  23.3323  54.3653
 -13.750  -0.4613   0.15624   0.14565  -0.0177   0.3500   0.0117  23.3323  54.3495
 -13.250  -0.4542   0.14596   0.13218  -0.0221   0.3500   0.0089  23.3323  53.5761
 -13.000  -0.4498   0.14165   0.12691  -0.0240   0.3500   0.0086  23.3323  53.4330
 -12.500  -0.4534   0.12899   0.11113  -0.0290   0.3500   0.0075  23.3323  52.9832
 -12.250  -0.4516   0.12448   0.10604  -0.0311   0.3500   0.0074  23.3323  52.9588
 -12.000  -0.4509   0.11972   0.10072  -0.0333   0.3500   0.0073  23.3323  52.9363
 -11.750  -0.4516   0.11471   0.09517  -0.0356   0.3500   0.0073  23.3323  52.9148
 -11.500  -0.4542   0.10938   0.08927  -0.0381   0.3500   0.0072  23.3323  52.8942
 -11.250  -0.4591   0.10359   0.08288  -0.0409   0.3500   0.0072  23.3323  52.8750
 -11.000  -0.4672   0.09724   0.07585  -0.0442   0.3500   0.0071  23.3323  52.8577
 -10.750  -0.4791   0.09007   0.06787  -0.0481   0.3500   0.0071  23.3323  52.8431
 -10.500  -0.4959   0.08176   0.05855  -0.0532   0.3500   0.0071  23.3323  52.8317
 -10.250  -0.5190   0.06999   0.04518  -0.0621   0.3500   0.0071  23.3323  52.8231
 -10.000  -0.5446   0.05942   0.03318  -0.0710   0.3500   0.0070  23.3323  52.8191
  -9.750  -0.5675   0.05226   0.02518  -0.0763   0.3500   0.0070  23.3323  52.8176
  -9.500  -0.5900   0.04620   0.01841  -0.0796   0.3500   0.0070  23.3323  52.8169
  -9.250  -0.6128   0.04055   0.01205  -0.0812   0.3500   0.0070  23.3323  52.8179
  -9.000  -0.6369   0.03500   0.00558  -0.0812   0.3500   0.0071  23.3323  52.8239
  -8.750  -0.6570   0.02790  -0.00300  -0.0803   0.3500   0.0071  23.3323  52.8457
  -8.500  -0.6541   0.02330  -0.00796  -0.0793   0.3500   0.0072  23.3323  52.8704
  -8.250  -0.6382   0.02052  -0.01020  -0.0784   0.3500   0.0072  23.3323  52.8938
  -8.000  -0.6164   0.01868  -0.01104  -0.0777   0.3500   0.0073  23.3323  52.9189
  -7.750  -0.5915   0.01735  -0.01117  -0.0771   0.3500   0.0074  23.3323  52.9464
  -7.500  -0.5648   0.01633  -0.01092  -0.0767   0.3500   0.0075  23.3323  52.9791
  -7.250  -0.5369   0.01548  -0.01048  -0.0764   0.3500   0.0076  23.3323  53.0419
  -7.000  -0.5080   0.01479  -0.00988  -0.0762   0.3500   0.0079  23.3323  53.1599
  -6.750  -0.4782   0.01424  -0.00920  -0.0761   0.3500   0.0083  23.3323  53.3161
  -6.500  -0.4478   0.01377  -0.00853  -0.0761   0.3500   0.0088  23.3323  53.5352
  -6.250  -0.4171   0.01335  -0.00787  -0.0762   0.3500   0.0096  23.3323  53.8596
  -6.000  -0.3861   0.01299  -0.00720  -0.0763   0.3500   0.0111  23.3323  54.2163
  -5.750  -0.3547   0.01271  -0.00654  -0.0765   0.3500   0.0130  23.3323  54.6131
  -5.500  -0.3232   0.01245  -0.00596  -0.0767   0.3500   0.0145  23.3323  54.9047
  -5.250  -0.2916   0.01219  -0.00545  -0.0770   0.3500   0.0156  23.3323  55.1237
  -5.000  -0.2600   0.01195  -0.00495  -0.0773   0.3500   0.0170  23.3323  55.4045
  -4.750  -0.2283   0.01174  -0.00451  -0.0777   0.3500   0.0183  23.3323  55.6649
  -4.500  -0.1964   0.01154  -0.00413  -0.0780   0.3500   0.0195  23.3323  55.8969
  -4.250  -0.1646   0.01134  -0.00378  -0.0784   0.3500   0.0209  23.3323  56.1829
  -4.000  -0.1327   0.01115  -0.00347  -0.0789   0.3500   0.0223  23.3323  56.4568
  -3.750  -0.1008   0.01098  -0.00319  -0.0793   0.3500   0.0239  23.3323  56.7707
  -3.500  -0.0688   0.01083  -0.00293  -0.0798   0.3500   0.0258  23.3323  57.1628
  -3.250  -0.0368   0.01067  -0.00271  -0.0803   0.3500   0.0282  23.3323  57.6315
  -3.000  -0.0048   0.01054  -0.00252  -0.0808   0.3500   0.0319  23.3323  58.1853
  -2.750   0.0272   0.01039  -0.00235  -0.0813   0.3500   0.0378  23.3323  58.7776
  -2.500   0.0594   0.01025  -0.00221  -0.0819   0.3500   0.0483  23.3323  59.8293
  -2.250   0.0917   0.01000  -0.00211  -0.0826   0.3500   0.0813  23.3323  63.1254
  -2.000   0.1246   0.00962  -0.00206  -0.0837   0.3500   0.1519  23.3323  67.5920
  -1.750   0.1584   0.00908  -0.00206  -0.0852   0.3500   0.2648  23.3323  73.2368
  -1.500   0.1920   0.00869  -0.00204  -0.0864   0.3500   0.3500  23.3323  76.6661
  -1.250   0.2239   0.00870  -0.00194  -0.0869   0.3500   0.3500  23.3323  76.6661
  -1.000   0.2559   0.00872  -0.00186  -0.0873   0.3500   0.3500  23.3323  76.6661
  -0.750   0.2878   0.00874  -0.00179  -0.0878   0.3500   0.3500  23.3323  76.6661
  -0.500   0.3196   0.00876  -0.00173  -0.0882   0.3500   0.3500  23.3323  76.6661
  -0.250   0.3515   0.00879  -0.00169  -0.0886   0.3500   0.3500  23.3323  76.6661
   0.000   0.3833   0.00882  -0.00166  -0.0891   0.3500   0.3500  23.3323  76.6661
   0.250   0.4150   0.00885  -0.00166  -0.0895   0.3500   0.3500  23.3323  76.6661
   0.500   0.4468   0.00888  -0.00166  -0.0899   0.3500   0.3500  23.3323  76.6661
   0.750   0.4785   0.00891  -0.00167  -0.0903   0.3500   0.3500  23.3323  76.6661
   1.000   0.5102   0.00895  -0.00169  -0.0907   0.3500   0.3500  23.3323  76.6661
   1.250   0.5419   0.00899  -0.00173  -0.0911   0.3500   0.3500  23.3323  76.6661
   1.500   0.5735   0.00903  -0.00179  -0.0915   0.3500   0.3500  23.3323  76.6661
   1.750   0.6052   0.00907  -0.00186  -0.0918   0.3500   0.3500  23.3323  76.6661
   2.000   0.6368   0.00912  -0.00195  -0.0922   0.3500   0.3500  23.3323  76.6661
   2.250   0.6684   0.00917  -0.00206  -0.0925   0.3500   0.3500  23.3323  76.6661
   2.500   0.7000   0.00922  -0.00218  -0.0928   0.3500   0.3500  23.3323  76.6661
   2.750   0.7316   0.00928  -0.00233  -0.0931   0.3500   0.3500  23.3323  76.6661
   3.000   0.7622   0.00941  -0.00247  -0.0932   0.3410   0.3500  23.6323  76.6661
   3.250   0.7848   0.01022  -0.00230  -0.0923   0.2658   0.3500  26.7095  76.6661
   3.500   0.8098   0.01079  -0.00227  -0.0916   0.2183   0.3500  29.0852  76.6661
   3.750   0.8358   0.01125  -0.00231  -0.0910   0.1828   0.3500  30.8605  76.6661
   4.000   0.8627   0.01163  -0.00242  -0.0906   0.1574   0.3500  32.1272  76.6661
   4.250   0.8900   0.01197  -0.00258  -0.0901   0.1412   0.3500  32.9400  76.6661
   4.500   0.9178   0.01225  -0.00280  -0.0897   0.1272   0.3500  33.6390  76.6661
   4.750   0.9442   0.01263  -0.00301  -0.0891   0.1114   0.3500  34.4306  76.6661
   5.000   0.9705   0.01298  -0.00325  -0.0884   0.0982   0.3500  35.1754  76.6661
   5.250   0.9953   0.01342  -0.00349  -0.0875   0.0834   0.3500  36.6570  76.6661
   5.500   1.0189   0.01391  -0.00373  -0.0864   0.0685   0.3500  38.1459  76.6661
   5.750   1.0434   0.01432  -0.00405  -0.0854   0.0600   0.3500  38.9998  76.6661
   6.000   1.0681   0.01470  -0.00443  -0.0844   0.0527   0.3500  39.7305  76.6661
   6.250   1.0913   0.01514  -0.00481  -0.0831   0.0458   0.3500  40.4200  76.6661
   6.500   1.1133   0.01561  -0.00521  -0.0817   0.0397   0.3500  41.0241  76.6661
   6.750   1.1328   0.01603  -0.00565  -0.0797   0.0356   0.3500  41.4313  76.6661
   7.000   1.1501   0.01656  -0.00603  -0.0774   0.0314   0.3500  41.8613  76.6661
   7.250   1.1701   0.01712  -0.00647  -0.0757   0.0286   0.3500  42.2713  76.6661
   7.500   1.1898   0.01775  -0.00690  -0.0740   0.0269   0.3500  42.6259  76.6661
   7.750   1.2085   0.01845  -0.00733  -0.0723   0.0254   0.3500  42.9200  76.6661
   8.000   1.2280   0.01912  -0.00784  -0.0707   0.0245   0.3500  43.0972  76.6661
   8.250   1.2474   0.01983  -0.00837  -0.0691   0.0236   0.3500  43.2694  76.6661
   8.500   1.2658   0.02062  -0.00890  -0.0675   0.0227   0.3500  43.4526  76.6661
   8.750   1.2832   0.02150  -0.00940  -0.0657   0.0218   0.3500  43.6468  76.6661
   9.000   1.2992   0.02249  -0.00984  -0.0640   0.0208   0.3500  43.8392  76.6661
   9.250   1.3146   0.02357  -0.01027  -0.0621   0.0199   0.3500  44.0161  76.6661
   9.500   1.3314   0.02456  -0.01084  -0.0605   0.0194   0.3500  44.1210  76.6661
   9.750   1.3476   0.02562  -0.01142  -0.0589   0.0187   0.3500  44.2579  76.6661
  10.000   1.3621   0.02683  -0.01189  -0.0572   0.0179   0.3500  44.4051  76.6661
  10.250   1.3762   0.02810  -0.01237  -0.0555   0.0173   0.3500  44.5399  76.6661
  10.500   1.3892   0.02946  -0.01280  -0.0537   0.0167   0.3500  44.6574  76.6661
  10.750   1.4011   0.03094  -0.01316  -0.0520   0.0162   0.3500  44.7585  76.6661
  11.000   1.4124   0.03250  -0.01349  -0.0503   0.0157   0.3500  44.8465  76.6661
  11.250   1.4213   0.03427  -0.01358  -0.0486   0.0154   0.3500  44.9231  76.6661
  11.500   1.4286   0.03619  -0.01353  -0.0468   0.0150   0.3500  44.9936  76.6661
  11.750   1.4351   0.03824  -0.01333  -0.0451   0.0148   0.3500  45.0305  76.6661
  12.000   1.4426   0.04024  -0.01326  -0.0436   0.0146   0.3500  45.0835  76.6661
  12.250   1.4480   0.04248  -0.01290  -0.0421   0.0143   0.3500  45.1431  76.6661
  12.500   1.4523   0.04486  -0.01238  -0.0407   0.0140   0.3500  45.1931  76.6661
  12.750   1.4542   0.04757  -0.01145  -0.0394   0.0138   0.3500  45.2356  76.6661
  13.000   1.4558   0.05038  -0.01040  -0.0382   0.0136   0.3500  45.2785  76.6661
  13.250   1.4548   0.05352  -0.00887  -0.0373   0.0134   0.3500  45.3187  76.6661
  13.500   1.4535   0.05677  -0.00721  -0.0365   0.0131   0.3500  45.3595  76.6661
  13.750   1.4495   0.06046  -0.00493  -0.0360   0.0130   0.3500  45.3971  76.6661
  14.000   1.4452   0.06426  -0.00248  -0.0357   0.0128   0.3500  45.4348  76.6661
  14.250   1.4380   0.06852   0.00067  -0.0357   0.0126   0.3500  45.4684  76.6661
  14.500   1.4295   0.07310   0.00432  -0.0361   0.0124   0.3500  45.5002  76.6661
  14.750   1.4203   0.07791   0.00833  -0.0368   0.0123   0.3500  45.5309  76.6661
  15.000   1.4085   0.08322   0.01317  -0.0380   0.0122   0.3500  45.5570  76.6661
  15.250   1.3952   0.08895   0.01872  -0.0397   0.0120   0.3500  45.5803  76.6661
  15.500   1.3808   0.09507   0.02498  -0.0419   0.0119   0.3500  45.6009  76.6661
  15.750   1.3652   0.10157   0.03202  -0.0446   0.0119   0.3500  45.6186  76.6661
  16.000   1.3488   0.10845   0.03989  -0.0478   0.0118   0.3500  45.6337  76.6661
  16.250   1.3315   0.11577   0.04877  -0.0516   0.0117   0.3500  45.6459  76.6661
  16.500   1.3138   0.12340   0.05862  -0.0559   0.0117   0.3500  45.6560  76.6661
  16.750   1.2953   0.13136   0.06956  -0.0605   0.0116   0.3500  45.6635  76.6661
  17.000   1.2766   0.13958   0.08157  -0.0655   0.0116   0.3500  45.6699  76.6661
  17.250   1.2578   0.14803   0.09470  -0.0709   0.0116   0.3500  45.6757  76.6661
  17.500   1.2390   0.15670   0.10893  -0.0766   0.0115   0.3500  45.6819  76.6661
  17.750   1.2203   0.16556   0.12426  -0.0826   0.0115   0.3500  45.6900  76.6661
  18.000   1.2015   0.17484   0.14115  -0.0891   0.0114   0.3500  45.7015  76.6661
  18.250   1.1799   0.18528   0.16137  -0.0964   0.0114   0.3500  45.7182  76.6661
  18.500   1.1490   0.19898   0.18986  -0.1061   0.0112   0.3500  45.7579  76.6661
  19.000   1.1086   0.22388   0.24327  -0.1232   0.0098   0.3500  46.0657  76.6661
  19.250   1.1056   0.23195   0.26055  -0.1284   0.0089   0.3500  46.4371  76.6661
  19.500   1.1096   0.23740   0.27180  -0.1321   0.0084   0.3500  46.6503  76.6661
  19.750   1.1156   0.24202   0.28131  -0.1353   0.0080   0.3500  46.7767  76.6661
  20.000   1.1227   0.24618   0.28985  -0.1383   0.0078   0.3500  46.8646  76.6661
