       XFOIL         Version 6.99
  
 Calculated polar for: JWRA-JWJ airfoil                                
  
 1 1 Reynolds number fixed          Mach number fixed         
  
 xtrf =   0.350 (top)        0.350 (bottom)  
 Mach =   0.350     Re =  0.625/1.000 e 6     Ncrit =   5.000  5.000
  	      Re = 1E6                       Re = 0.625E6
   deltaF alpha0     CM0       CD0      alpha0     CM0       CD0      
  ------ -------- --------- --------- --------- -------- --------- 
  15.000 -11.3780 -0.208900 0.0159900 -10.52200 -0.19160 0.0199900
  10.000 -8.68700 -0.167100 0.0128900 -8.560000 -0.16340 0.0146600
  0.0000 -2.45000 -0.058100 0.0103100 -2.420000 -0.05740 0.0112100
  -10.00 4.043000 0.0590000 0.0120300 4.0420000 0.059200 0.0100700
  -15.00 7.277000 0.0117000 0.0108300 7.2320000 0.116700 0.0120300

