       XFOIL         Version 6.99
  
 Calculated polar for: JWRA-JWR airfoil                                
  
 1 1 Reynolds number fixed          Mach number fixed         
  
 xtrf =   0.350 (top)        0.350 (bottom)  
 Mach =   0.350     Re =  1/0.625 e 6     Ncrit =   5.000  5.000
  	      Re = 1E6                       Re = 0.625E6
   deltaF alpha0     CM0       CD0      alpha0     CM0       CD0      
  ------ -------- --------- --------- --------- -------- --------- 
  15.000 -10.9430 -0.209900 0.0185700 -10.31800 -0.19770 0.2291000
  10.000 -9.04900 -0.184100 0.0134100 -8.843000 -0.17840 0.0153400
  0.0000 -2.96220 -0.080900 0.0105100 -2.913000 -0.07940 0.0116100 
  -10.00 3.505000 0.0343000 0.0008870 3.5190000 0.034900 0.0100000
  -15.00 6.748000 0.0939000 0.0097700 6.7180000 0.093600 0.0111900

