       XFOIL         Version 6.99
  
 Calculated polar for: JWRA-JTR airfoil                                
  
 1 1 Reynolds number fixed          Mach number fixed         
  
 xtrf =   0.350 (top)        0.350 (bottom)  
 Mach =   0.350     Re =  1/0.625 e 6     Ncrit =   5.000  5.000
  	      Re = 1E6                       Re = 0.625E6
   deltaF alpha0     CM0       CD0      alpha0     CM0       CD0      
  ------ -------- --------- --------- --------- -------- --------- 
  15.000 -10.5880 -0.192200 0.0139600 -10.42000 -0.18760 0.0158300
  10.000 -7.57000 -0.143100 0.0116100 -7.515000 -0.14170 0.0127600
  0.0000 -1.16200 -0.032200 0.0086700 -1.145400 -0.03170 0.0097200
  -10.00 5.397000 0.0862000 0.0090700 5.3850000 0.086000 0.0102000
  -15.00 8.612000 0.1417000 0.0112300 8.5830000 0.142000 0.0120600 

