       XFOIL         Version 6.99
  
 Calculated polar for: JWRA - JWJ airfoil                              
  
 1 1 Reynolds number fixed          Mach number fixed         
  
 xtrf =   0.350 (top)        0.350 (bottom)  
 Mach =   0.350     Re =     1.000 e 6     Ncrit =   5.000  5.000
  
   alpha    CL        CD       CDp       CM     Top_Xtr  Bot_Xtr  Top_Itr  Bot_Itr
  ------ -------- --------- --------- -------- -------- -------- -------- --------
 -14.500  -0.5330   0.17257   0.16773   0.0085   0.3500   0.0113  23.3313  54.2575
 -14.250  -0.5252   0.16873   0.16220   0.0066   0.3500   0.0113  23.3313  54.2586
 -14.000  -0.5182   0.16466   0.15646   0.0045   0.3500   0.0112  23.3313  54.2427
 -13.500  -0.5073   0.15523   0.14352   0.0002   0.3500   0.0090  23.3313  53.5986
 -13.250  -0.5021   0.15095   0.13802  -0.0017   0.3500   0.0086  23.3313  53.4438
 -13.000  -0.5071   0.14269   0.12685  -0.0049   0.3500   0.0075  23.3313  52.9894
 -12.750  -0.5033   0.13840   0.12174  -0.0069   0.3500   0.0074  23.3313  52.9594
 -12.500  -0.5003   0.13389   0.11640  -0.0090   0.3500   0.0074  23.3313  52.9333
 -12.250  -0.4985   0.12918   0.11090  -0.0111   0.3500   0.0073  23.3313  52.9084
 -12.000  -0.4981   0.12423   0.10520  -0.0134   0.3500   0.0072  23.3313  52.8840
 -11.750  -0.4993   0.11894   0.09918  -0.0158   0.3500   0.0072  23.3313  52.8599
 -11.500  -0.5029   0.11327   0.09277  -0.0185   0.3500   0.0071  23.3313  52.8368
 -11.250  -0.5094   0.10703   0.08575  -0.0215   0.3500   0.0070  23.3313  52.8150
 -11.000  -0.5201   0.10002   0.07784  -0.0251   0.3500   0.0070  23.3313  52.7956
 -10.750  -0.5361   0.09194   0.06868  -0.0296   0.3500   0.0070  23.3313  52.7799
 -10.500  -0.5582   0.08242   0.05780  -0.0355   0.3500   0.0069  23.3313  52.7688
 -10.250  -0.5885   0.06814   0.04136  -0.0467   0.3500   0.0069  23.3313  52.7616
 -10.000  -0.6158   0.05828   0.03013  -0.0546   0.3500   0.0069  23.3313  52.7598
  -9.750  -0.6405   0.05116   0.02212  -0.0593   0.3500   0.0069  23.3313  52.7593
  -9.500  -0.6654   0.04499   0.01517  -0.0620   0.3500   0.0069  23.3313  52.7604
  -9.250  -0.6912   0.03927   0.00861  -0.0628   0.3500   0.0069  23.3313  52.7646
  -9.000  -0.7189   0.03344   0.00163  -0.0614   0.3500   0.0069  23.3313  52.7766
  -8.750  -0.7322   0.02751  -0.00536  -0.0600   0.3500   0.0070  23.3313  52.7990
  -8.500  -0.7267   0.02346  -0.00952  -0.0586   0.3500   0.0071  23.3313  52.8221
  -8.250  -0.7101   0.02085  -0.01151  -0.0575   0.3500   0.0071  23.3313  52.8437
  -8.000  -0.6881   0.01905  -0.01230  -0.0566   0.3500   0.0072  23.3313  52.8654
  -7.750  -0.6630   0.01772  -0.01242  -0.0558   0.3500   0.0072  23.3313  52.8894
  -7.500  -0.6361   0.01668  -0.01218  -0.0552   0.3500   0.0073  23.3313  52.9184
  -7.250  -0.6079   0.01583  -0.01174  -0.0548   0.3500   0.0074  23.3313  52.9544
  -7.000  -0.5787   0.01513  -0.01116  -0.0544   0.3500   0.0075  23.3313  52.9989
  -6.750  -0.5489   0.01451  -0.01053  -0.0542   0.3500   0.0078  23.3313  53.1201
  -6.500  -0.5184   0.01401  -0.00983  -0.0541   0.3500   0.0082  23.3313  53.2808
  -6.250  -0.4874   0.01359  -0.00914  -0.0540   0.3500   0.0088  23.3313  53.5069
  -6.000  -0.4561   0.01320  -0.00847  -0.0540   0.3500   0.0096  23.3313  53.8440
  -5.750  -0.4246   0.01287  -0.00780  -0.0541   0.3500   0.0110  23.3313  54.2088
  -5.500  -0.3928   0.01261  -0.00714  -0.0542   0.3500   0.0130  23.3313  54.5952
  -5.250  -0.3609   0.01236  -0.00657  -0.0543   0.3500   0.0144  23.3313  54.8837
  -5.000  -0.3289   0.01212  -0.00605  -0.0545   0.3500   0.0153  23.3313  55.0631
  -4.750  -0.2969   0.01187  -0.00556  -0.0547   0.3500   0.0167  23.3313  55.3308
  -4.500  -0.2649   0.01166  -0.00512  -0.0550   0.3500   0.0179  23.3313  55.5798
  -4.250  -0.2327   0.01147  -0.00472  -0.0553   0.3500   0.0192  23.3313  55.8295
  -4.000  -0.2005   0.01130  -0.00436  -0.0556   0.3500   0.0203  23.3313  56.0540
  -3.750  -0.1682   0.01110  -0.00404  -0.0559   0.3500   0.0218  23.3313  56.3496
  -3.500  -0.1359   0.01093  -0.00374  -0.0563   0.3500   0.0233  23.3313  56.6507
  -3.250  -0.1036   0.01079  -0.00347  -0.0567   0.3500   0.0248  23.3313  56.9610
  -3.000  -0.0713   0.01063  -0.00324  -0.0571   0.3500   0.0273  23.3313  57.4591
  -2.750  -0.0389   0.01049  -0.00303  -0.0575   0.3500   0.0317  23.3313  58.1662
  -2.500  -0.0065   0.01034  -0.00285  -0.0580   0.3500   0.0396  23.3313  58.9526
  -2.250   0.0260   0.01013  -0.00271  -0.0586   0.3500   0.0616  23.3313  61.1608
  -2.000   0.0588   0.00982  -0.00262  -0.0593   0.3500   0.1073  23.3313  65.3646
  -1.750   0.0918   0.00947  -0.00254  -0.0602   0.3500   0.1750  23.3313  68.7494
  -1.500   0.1252   0.00904  -0.00250  -0.0613   0.3500   0.2622  23.3313  73.1081
  -1.250   0.1588   0.00863  -0.00248  -0.0624   0.3500   0.3500  23.3313  76.6651
  -1.000   0.1912   0.00864  -0.00237  -0.0628   0.3500   0.3500  23.3313  76.6651
  -0.750   0.2236   0.00865  -0.00229  -0.0632   0.3500   0.3500  23.3313  76.6651
  -0.500   0.2560   0.00867  -0.00221  -0.0636   0.3500   0.3500  23.3313  76.6651
  -0.250   0.2884   0.00869  -0.00216  -0.0639   0.3500   0.3500  23.3313  76.6651
   0.000   0.3207   0.00871  -0.00212  -0.0643   0.3500   0.3500  23.3313  76.6651
   0.250   0.3530   0.00874  -0.00209  -0.0647   0.3500   0.3500  23.3313  76.6651
   0.500   0.3853   0.00876  -0.00208  -0.0651   0.3500   0.3500  23.3313  76.6651
   0.750   0.4176   0.00879  -0.00210  -0.0655   0.3500   0.3500  23.3313  76.6651
   1.000   0.4499   0.00882  -0.00211  -0.0658   0.3500   0.3500  23.3313  76.6651
   1.250   0.4822   0.00886  -0.00214  -0.0662   0.3500   0.3500  23.3313  76.6651
   1.500   0.5144   0.00889  -0.00219  -0.0666   0.3500   0.3500  23.3313  76.6651
   1.750   0.5466   0.00893  -0.00225  -0.0669   0.3500   0.3500  23.3313  76.6651
   2.000   0.5766   0.00925  -0.00221  -0.0670   0.3145   0.3500  24.5158  76.6651
   2.250   0.6057   0.00966  -0.00215  -0.0670   0.2740   0.3500  26.2977  76.6651
   2.750   0.6644   0.01038  -0.00212  -0.0670   0.2088   0.3500  29.5579  76.6651
   3.000   0.6937   0.01071  -0.00215  -0.0669   0.1835   0.3500  30.8214  76.6651
   3.250   0.7239   0.01094  -0.00223  -0.0669   0.1696   0.3500  31.5173  76.6651
   3.500   0.7539   0.01119  -0.00233  -0.0669   0.1571   0.3500  32.1418  76.6651
   3.750   0.7839   0.01141  -0.00246  -0.0669   0.1478   0.3500  32.6073  76.6651
   4.000   0.8139   0.01165  -0.00262  -0.0668   0.1389   0.3500  33.0535  76.6651
   4.250   0.8439   0.01186  -0.00281  -0.0667   0.1309   0.3500  33.4504  76.6651
   4.500   0.8727   0.01218  -0.00298  -0.0664   0.1180   0.3500  34.0976  76.6651
   4.750   0.9018   0.01246  -0.00319  -0.0662   0.1091   0.3500  34.5412  76.6651
   5.000   0.9307   0.01275  -0.00343  -0.0659   0.1011   0.3500  34.9435  76.6651
   5.250   0.9600   0.01299  -0.00372  -0.0656   0.0962   0.3500  35.3714  76.6651
   5.750   1.0165   0.01362  -0.00435  -0.0646   0.0859   0.3500  36.4020  76.6651
   6.000   1.0440   0.01396  -0.00469  -0.0640   0.0813   0.3500  36.8614  76.6651
   6.250   1.0717   0.01428  -0.00509  -0.0634   0.0780   0.3500  37.1949  76.6651
   6.500   1.0990   0.01462  -0.00553  -0.0627   0.0748   0.3500  37.5143  76.6651
   6.750   1.1254   0.01500  -0.00597  -0.0619   0.0716   0.3500  37.8398  76.6651
   7.000   1.1518   0.01536  -0.00647  -0.0610   0.0690   0.3500  38.1004  76.6651
   7.250   1.1779   0.01572  -0.00702  -0.0600   0.0663   0.3500  38.3630  76.6651
   7.500   1.2027   0.01614  -0.00758  -0.0589   0.0629   0.3500  38.7091  76.6651
   7.750   1.2261   0.01661  -0.00814  -0.0575   0.0598   0.3500  39.0181  76.6651
   8.000   1.2497   0.01703  -0.00878  -0.0562   0.0579   0.3500  39.2029  76.6651
   8.250   1.2685   0.01748  -0.00938  -0.0540   0.0558   0.3500  39.4169  76.6651
   8.500   1.2863   0.01803  -0.00994  -0.0518   0.0535   0.3500  39.6474  76.6651
   8.750   1.3058   0.01869  -0.01050  -0.0500   0.0508   0.3500  39.9210  76.6651
   9.000   1.3260   0.01934  -0.01113  -0.0484   0.0488   0.3500  40.1185  76.6651
   9.250   1.3462   0.02003  -0.01179  -0.0468   0.0465   0.3500  40.3418  76.6651
   9.500   1.3653   0.02081  -0.01242  -0.0452   0.0442   0.3500  40.5745  76.6651
   9.750   1.3833   0.02168  -0.01302  -0.0436   0.0418   0.3500  40.8143  76.6651
  10.000   1.4005   0.02264  -0.01359  -0.0419   0.0398   0.3500  41.0205  76.6651
  10.250   1.4186   0.02356  -0.01426  -0.0404   0.0386   0.3500  41.1320  76.6651
  10.500   1.4356   0.02459  -0.01487  -0.0388   0.0372   0.3500  41.2696  76.6651
  10.750   1.4522   0.02567  -0.01551  -0.0372   0.0357   0.3500  41.4203  76.6651
  11.000   1.4673   0.02688  -0.01605  -0.0357   0.0342   0.3500  41.5680  76.6651
  11.250   1.4820   0.02816  -0.01659  -0.0341   0.0328   0.3500  41.7100  76.6651
  11.500   1.4948   0.02960  -0.01698  -0.0326   0.0315   0.3500  41.8476  76.6651
  11.750   1.5063   0.03116  -0.01726  -0.0310   0.0301   0.3500  41.9906  76.6651
  12.000   1.5178   0.03277  -0.01754  -0.0295   0.0294   0.3500  42.1238  76.6651
  12.250   1.5291   0.03442  -0.01785  -0.0281   0.0286   0.3500  42.2661  76.6651
  12.500   1.5382   0.03628  -0.01791  -0.0267   0.0280   0.3500  42.3912  76.6651
  12.750   1.5468   0.03820  -0.01795  -0.0254   0.0274   0.3500  42.5115  76.6651
  13.000   1.5531   0.04039  -0.01768  -0.0242   0.0269   0.3500  42.6206  76.6651
  13.250   1.5590   0.04263  -0.01738  -0.0230   0.0264   0.3500  42.7239  76.6651
  13.500   1.5616   0.04524  -0.01659  -0.0220   0.0259   0.3500  42.8159  76.6651
  13.750   1.5631   0.04804  -0.01559  -0.0212   0.0255   0.3500  42.9054  76.6651
  14.000   1.5615   0.05125  -0.01402  -0.0206   0.0250   0.3500  42.9900  76.6651
  14.250   1.5609   0.05448  -0.01245  -0.0202   0.0248   0.3500  43.0410  76.6651
  14.500   1.5599   0.05780  -0.01077  -0.0199   0.0245   0.3500  43.0934  76.6651
  14.750   1.5556   0.06165  -0.00836  -0.0201   0.0242   0.3500  43.1455  76.6651
  15.000   1.5498   0.06576  -0.00557  -0.0205   0.0240   0.3500  43.1986  76.6651
  15.250   1.5425   0.07012  -0.00238  -0.0211   0.0237   0.3500  43.2507  76.6651
  15.500   1.5318   0.07508   0.00172  -0.0222   0.0235   0.3500  43.2971  76.6651
  15.750   1.5189   0.08049   0.00651  -0.0238   0.0233   0.3500  43.3399  76.6651
  16.000   1.5038   0.08635   0.01207  -0.0259   0.0231   0.3500  43.3782  76.6651
  16.250   1.4863   0.09271   0.01852  -0.0284   0.0229   0.3500  43.4119  76.6651
  16.500   1.4666   0.09962   0.02597  -0.0315   0.0228   0.3500  43.4411  76.6651
  16.750   1.4441   0.10715   0.03470  -0.0353   0.0226   0.3500  43.4649  76.6651
  17.000   1.4208   0.11491   0.04422  -0.0393   0.0225   0.3500  43.4874  76.6651
  17.250   1.3961   0.12307   0.05489  -0.0439   0.0224   0.3500  43.5075  76.6651
  17.500   1.3709   0.13146   0.06657  -0.0488   0.0223   0.3500  43.5274  76.6651
  17.750   1.3471   0.13976   0.07871  -0.0539   0.0222   0.3500  43.5507  76.6651
  18.000   1.3246   0.14809   0.09150  -0.0594   0.0221   0.3500  43.5777  76.6651
  18.250   1.3042   0.15632   0.10470  -0.0650   0.0219   0.3500  43.6100  76.6651
  18.500   1.2856   0.16441   0.11821  -0.0706   0.0217   0.3500  43.6477  76.6651
  18.750   1.2702   0.17213   0.13147  -0.0761   0.0215   0.3500  43.6925  76.6651
  19.000   1.2590   0.17925   0.14391  -0.0813   0.0212   0.3500  43.7467  76.6651
  19.250   1.2496   0.18616   0.15633  -0.0863   0.0209   0.3500  43.8148  76.6651
  19.500   1.2423   0.19276   0.16844  -0.0912   0.0205   0.3500  43.8925  76.6651
  19.750   1.2356   0.19935   0.18092  -0.0962   0.0201   0.3500  43.9756  76.6651
  20.000   1.2246   0.20713   0.19682  -0.1021   0.0198   0.3500  44.0315  76.6651

