  
       XFOIL         Version 6.97
  
 Calculated polar for: NACA 4309                                       
  
 1 1 Reynolds number fixed          Mach number fixed         
  
 xtrf =   1.000 (top)        1.000 (bottom)  
 Mach =   0.000     Re =     0.224 e 6     Ncrit =   9.000
  
   alpha    CL        CD       CDp       CM     Top_Xtr  Bot_Xtr
  ------ -------- --------- --------- -------- -------- --------
  -4.000  -0.0380   0.02748   0.02217  -0.0872   0.9547   0.0541
  -3.800  -0.0136   0.02397   0.01844  -0.0881   0.9492   0.0471
  -3.700   0.0013   0.02078   0.01461  -0.0886   0.9473   0.0445
  -3.600   0.0161   0.02044   0.01428  -0.0894   0.9453   0.0459
  -3.500   0.0315   0.02000   0.01378  -0.0903   0.9436   0.0476
  -3.400   0.0472   0.01925   0.01286  -0.0911   0.9421   0.0490
  -3.300   0.0631   0.01836   0.01178  -0.0918   0.9408   0.0498
  -3.200   0.0790   0.01759   0.01085  -0.0926   0.9395   0.0506
  -3.100   0.0884   0.01713   0.01027  -0.0920   0.9344   0.0515
  -3.000   0.1019   0.01672   0.00974  -0.0923   0.9314   0.0525
  -2.900   0.1156   0.01584   0.00876  -0.0927   0.9291   0.0546
  -2.800   0.1298   0.01546   0.00840  -0.0933   0.9270   0.0569
  -2.700   0.1445   0.01513   0.00805  -0.0939   0.9251   0.0593
  -2.600   0.1540   0.01485   0.00773  -0.0934   0.9195   0.0610
  -2.500   0.1664   0.01452   0.00733  -0.0934   0.9158   0.0630
  -2.400   0.1799   0.01429   0.00702  -0.0936   0.9128   0.0651
  -2.300   0.1930   0.01368   0.00642  -0.0939   0.9103   0.0687
  -2.200   0.2023   0.01351   0.00629  -0.0935   0.9042   0.0716
  -2.100   0.2142   0.01329   0.00604  -0.0934   0.8999   0.0751
  -2.000   0.2270   0.01307   0.00575  -0.0935   0.8966   0.0782
  -1.900   0.2369   0.01269   0.00541  -0.0931   0.8911   0.0821
  -1.800   0.2479   0.01252   0.00527  -0.0930   0.8860   0.0868
  -1.700   0.2601   0.01237   0.00507  -0.0929   0.8820   0.0920
  -1.600   0.2702   0.01209   0.00481  -0.0926   0.8763   0.0970
  -1.500   0.2811   0.01193   0.00466  -0.0924   0.8708   0.1029
  -1.400   0.2928   0.01173   0.00444  -0.0923   0.8666   0.1102
  -1.300   0.3028   0.01160   0.00435  -0.0920   0.8597   0.1178
  -1.200   0.3138   0.01141   0.00417  -0.0918   0.8542   0.1265
  -1.100   0.3246   0.01129   0.00404  -0.0916   0.8482   0.1365
  -1.000   0.3350   0.01113   0.00392  -0.0914   0.8415   0.1479
  -0.900   0.3460   0.01097   0.00379  -0.0912   0.8357   0.1615
  -0.800   0.3563   0.01083   0.00369  -0.0909   0.8280   0.1770
  -0.700   0.3672   0.01068   0.00356  -0.0907   0.8221   0.1968
  -0.600   0.3773   0.01051   0.00348  -0.0905   0.8138   0.2215
  -0.500   0.3878   0.01026   0.00334  -0.0903   0.8073   0.2634
  -0.400   0.3919   0.00906   0.00339  -0.0893   0.7994   0.6353
  -0.200   0.4238   0.00828   0.00323  -0.0901   0.7842   1.0000
  -0.100   0.4344   0.00831   0.00315  -0.0898   0.7764   1.0000
   0.000   0.4447   0.00834   0.00309  -0.0895   0.7674   1.0000
   0.100   0.4551   0.00837   0.00304  -0.0892   0.7586   1.0000
   0.200   0.4654   0.00841   0.00299  -0.0889   0.7496   1.0000
   0.300   0.4757   0.00845   0.00295  -0.0886   0.7398   1.0000
   0.400   0.4860   0.00850   0.00291  -0.0883   0.7303   1.0000
   0.500   0.4963   0.00855   0.00288  -0.0881   0.7203   1.0000
   0.600   0.5065   0.00861   0.00285  -0.0878   0.7096   1.0000
   0.700   0.5167   0.00867   0.00283  -0.0875   0.6993   1.0000
   0.800   0.5268   0.00874   0.00281  -0.0872   0.6891   1.0000
   0.900   0.5370   0.00881   0.00280  -0.0869   0.6779   1.0000
   1.000   0.5472   0.00889   0.00280  -0.0866   0.6672   1.0000
   1.100   0.5573   0.00897   0.00280  -0.0864   0.6567   1.0000
   1.200   0.5674   0.00906   0.00280  -0.0861   0.6460   1.0000
   1.300   0.5775   0.00915   0.00281  -0.0858   0.6349   1.0000
   1.400   0.5876   0.00924   0.00282  -0.0856   0.6244   1.0000
   1.500   0.5976   0.00935   0.00284  -0.0853   0.6145   1.0000
   1.600   0.6078   0.00945   0.00287  -0.0851   0.6040   1.0000
   1.700   0.6179   0.00955   0.00290  -0.0849   0.5943   1.0000
   1.900   0.6383   0.00976   0.00297  -0.0844   0.5763   1.0000
   2.000   0.6485   0.00988   0.00301  -0.0842   0.5686   1.0000
   2.100   0.6588   0.00998   0.00306  -0.0841   0.5605   1.0000
   2.200   0.6690   0.01010   0.00311  -0.0839   0.5535   1.0000
   2.300   0.6794   0.01020   0.00316  -0.0837   0.5462   1.0000
   2.400   0.6896   0.01033   0.00321  -0.0836   0.5402   1.0000
   2.500   0.7001   0.01042   0.00328  -0.0834   0.5335   1.0000
   2.600   0.7105   0.01054   0.00334  -0.0833   0.5280   1.0000
   2.700   0.7210   0.01065   0.00341  -0.0832   0.5225   1.0000
   2.800   0.7315   0.01075   0.00348  -0.0830   0.5172   1.0000
   2.900   0.7419   0.01088   0.00355  -0.0829   0.5128   1.0000
   3.000   0.7525   0.01098   0.00363  -0.0828   0.5082   1.0000
   3.100   0.7631   0.01107   0.00371  -0.0827   0.5035   1.0000
   3.200   0.7736   0.01119   0.00378  -0.0826   0.4995   1.0000
   3.300   0.7841   0.01132   0.00386  -0.0825   0.4958   1.0000
   3.400   0.7948   0.01141   0.00395  -0.0825   0.4916   1.0000
   3.500   0.8054   0.01151   0.00405  -0.0824   0.4878   1.0000
   3.600   0.8160   0.01163   0.00414  -0.0823   0.4845   1.0000
   3.700   0.8266   0.01177   0.00423  -0.0822   0.4816   1.0000
   3.800   0.8373   0.01186   0.00433  -0.0821   0.4780   1.0000
   3.900   0.8479   0.01195   0.00443  -0.0821   0.4746   1.0000
   4.000   0.8586   0.01206   0.00452  -0.0820   0.4715   1.0000
   4.100   0.8692   0.01220   0.00462  -0.0819   0.4688   1.0000
   4.200   0.8799   0.01233   0.00473  -0.0819   0.4661   1.0000
   4.300   0.8906   0.01242   0.00485  -0.0818   0.4631   1.0000
   4.400   0.9012   0.01252   0.00498  -0.0817   0.4601   1.0000
   4.500   0.9119   0.01263   0.00508  -0.0817   0.4574   1.0000
   4.600   0.9225   0.01276   0.00519  -0.0816   0.4549   1.0000
   4.700   0.9333   0.01292   0.00531  -0.0816   0.4526   1.0000
   4.800   0.9439   0.01302   0.00544  -0.0815   0.4499   1.0000
   4.900   0.9545   0.01312   0.00557  -0.0814   0.4471   1.0000
   5.000   0.9651   0.01322   0.00570  -0.0814   0.4445   1.0000
   5.100   0.9757   0.01334   0.00582  -0.0813   0.4420   1.0000
   5.200   0.9864   0.01348   0.00594  -0.0812   0.4397   1.0000
   5.300   0.9973   0.01366   0.00609  -0.0812   0.4375   1.0000
   5.400   1.0077   0.01375   0.00624  -0.0811   0.4350   1.0000
   5.500   1.0182   0.01385   0.00639  -0.0810   0.4323   1.0000
   5.600   1.0287   0.01396   0.00653  -0.0810   0.4297   1.0000
   5.700   1.0393   0.01409   0.00666  -0.0809   0.4272   1.0000
   5.800   1.0499   0.01423   0.00679  -0.0808   0.4250   1.0000
   5.900   1.0608   0.01442   0.00695  -0.0808   0.4228   1.0000
   6.000   1.0709   0.01451   0.00711  -0.0807   0.4201   1.0000
   6.100   1.0812   0.01461   0.00727  -0.0806   0.4173   1.0000
   6.200   1.0916   0.01472   0.00742  -0.0804   0.4143   1.0000
   6.300   1.1018   0.01483   0.00752  -0.0803   0.4108   1.0000
   6.400   1.1115   0.01494   0.00762  -0.0801   0.4060   1.0000
   6.500   1.1205   0.01494   0.00767  -0.0797   0.3996   1.0000
   6.600   1.1300   0.01504   0.00769  -0.0794   0.3935   1.0000
   6.700   1.1388   0.01503   0.00778  -0.0790   0.3868   1.0000
   6.800   1.1481   0.01509   0.00782  -0.0787   0.3811   1.0000
   6.900   1.1577   0.01520   0.00794  -0.0784   0.3765   1.0000
   7.000   1.1673   0.01526   0.00806  -0.0782   0.3717   1.0000
   7.100   1.1768   0.01533   0.00817  -0.0779   0.3671   1.0000
   7.200   1.1864   0.01547   0.00828  -0.0777   0.3629   1.0000
   7.300   1.1958   0.01551   0.00842  -0.0774   0.3576   1.0000
   7.400   1.2051   0.01558   0.00851  -0.0771   0.3525   1.0000
   7.500   1.2144   0.01570   0.00863  -0.0768   0.3477   1.0000
   7.600   1.2237   0.01574   0.00876  -0.0765   0.3416   1.0000
   7.700   1.2326   0.01584   0.00885  -0.0761   0.3358   1.0000
   7.800   1.2418   0.01590   0.00898  -0.0758   0.3291   1.0000
   7.900   1.2506   0.01598   0.00908  -0.0755   0.3220   1.0000
   8.000   1.2597   0.01605   0.00920  -0.0751   0.3139   1.0000
