  
       XFOIL         Version 6.97
  
 Calculated polar for: NACA 4309                                       
  
 1 1 Reynolds number fixed          Mach number fixed         
  
 xtrf =   1.000 (top)        1.000 (bottom)  
 Mach =   0.000     Re =     0.199 e 6     Ncrit =   9.000
  
   alpha    CL        CD       CDp       CM     Top_Xtr  Bot_Xtr
  ------ -------- --------- --------- -------- -------- --------
  -5.000  -0.2266   0.05181   0.04830  -0.0615   0.9769   0.0577
  -4.900  -0.2120   0.05024   0.04667  -0.0637   0.9744   0.0593
  -4.800  -0.1946   0.04842   0.04473  -0.0665   0.9724   0.0619
  -4.700  -0.1671   0.04491   0.04073  -0.0726   0.9701   0.0662
  -4.600  -0.1553   0.04307   0.03894  -0.0739   0.9690   0.0670
  -4.500  -0.1419   0.04181   0.03770  -0.0752   0.9681   0.0680
  -4.400  -0.1336   0.04103   0.03694  -0.0752   0.9639   0.0692
  -4.300  -0.1208   0.04017   0.03606  -0.0761   0.9614   0.0716
  -4.200  -0.0966   0.03850   0.03383  -0.0795   0.9588   0.0798
  -4.100  -0.0843   0.03659   0.03201  -0.0807   0.9574   0.0808
  -4.000  -0.0698   0.03533   0.03078  -0.0820   0.9562   0.0820
  -3.900  -0.0541   0.03423   0.02965  -0.0835   0.9551   0.0836
  -3.800  -0.0371   0.03312   0.02846  -0.0851   0.9541   0.0859
  -3.700  -0.0245   0.03263   0.02774  -0.0852   0.9491   0.0914
  -3.600  -0.0102   0.03077   0.02567  -0.0866   0.9466   0.0953
  -3.500   0.0045   0.02957   0.02447  -0.0877   0.9449   0.0965
  -3.400   0.0204   0.02852   0.02337  -0.0889   0.9434   0.0980
  -3.300   0.0367   0.02773   0.02251  -0.0901   0.9420   0.1019
  -3.200   0.0533   0.02679   0.02141  -0.0914   0.9407   0.1114
  -3.100   0.0766   0.01834   0.01126  -0.0906   0.9406   0.0543
  -3.000   0.0914   0.01771   0.01061  -0.0914   0.9386   0.0559
  -2.900   0.1016   0.01748   0.01037  -0.0911   0.9337   0.0579
  -2.800   0.1158   0.01717   0.01002  -0.0916   0.9309   0.0604
  -2.700   0.1309   0.01672   0.00947  -0.0922   0.9286   0.0626
  -2.600   0.1464   0.01627   0.00891  -0.0928   0.9267   0.0644
  -2.500   0.1618   0.01566   0.00820  -0.0934   0.9250   0.0663
  -2.400   0.1708   0.01521   0.00779  -0.0930   0.9193   0.0689
  -2.300   0.1837   0.01499   0.00757  -0.0932   0.9156   0.0723
  -2.200   0.1977   0.01471   0.00725  -0.0936   0.9127   0.0760
  -2.100   0.2124   0.01445   0.00691  -0.0939   0.9103   0.0789
  -2.000   0.2212   0.01395   0.00646  -0.0934   0.9042   0.0822
  -1.900   0.2334   0.01373   0.00627  -0.0935   0.8999   0.0868
  -1.800   0.2468   0.01354   0.00602  -0.0936   0.8967   0.0921
  -1.700   0.2569   0.01320   0.00572  -0.0933   0.8911   0.0968
  -1.600   0.2681   0.01299   0.00553  -0.0932   0.8860   0.1022
  -1.500   0.2806   0.01278   0.00527  -0.0932   0.8821   0.1089
  -1.400   0.2907   0.01257   0.00513  -0.0929   0.8762   0.1161
  -1.300   0.3018   0.01239   0.00493  -0.0927   0.8707   0.1242
  -1.200   0.3138   0.01216   0.00473  -0.0926   0.8666   0.1335
  -1.100   0.3236   0.01199   0.00460  -0.0923   0.8595   0.1434
  -1.000   0.3348   0.01181   0.00444  -0.0921   0.8540   0.1561
  -0.900   0.3455   0.01164   0.00431  -0.0919   0.8478   0.1702
  -0.800   0.3559   0.01146   0.00417  -0.0916   0.8410   0.1867
  -0.700   0.3669   0.01126   0.00403  -0.0915   0.8351   0.2083
  -0.600   0.3769   0.01104   0.00392  -0.0912   0.8273   0.2374
  -0.500   0.3871   0.01061   0.00375  -0.0910   0.8213   0.3083
  -0.400   0.3852   0.00916   0.00389  -0.0881   0.8140   0.7934
  -0.300   0.4140   0.00882   0.00366  -0.0910   0.8077   1.0000
  -0.200   0.4241   0.00883   0.00359  -0.0906   0.7987   1.0000
  -0.100   0.4348   0.00884   0.00350  -0.0904   0.7912   1.0000
   0.000   0.4451   0.00886   0.00344  -0.0900   0.7821   1.0000
   0.100   0.4556   0.00889   0.00337  -0.0897   0.7737   1.0000
   0.200   0.4660   0.00892   0.00331  -0.0894   0.7649   1.0000
   0.300   0.4763   0.00895   0.00327  -0.0891   0.7553   1.0000
   0.400   0.4867   0.00899   0.00322  -0.0888   0.7463   1.0000
   0.500   0.4969   0.00903   0.00318  -0.0885   0.7363   1.0000
   0.600   0.5072   0.00908   0.00315  -0.0882   0.7260   1.0000
   0.700   0.5174   0.00914   0.00312  -0.0879   0.7160   1.0000
   0.800   0.5276   0.00920   0.00309  -0.0876   0.7055   1.0000
   0.900   0.5377   0.00926   0.00308  -0.0873   0.6944   1.0000
   1.000   0.5479   0.00934   0.00306  -0.0870   0.6837   1.0000
   1.100   0.5581   0.00942   0.00305  -0.0867   0.6735   1.0000
   1.200   0.5682   0.00950   0.00305  -0.0864   0.6625   1.0000
   1.300   0.5783   0.00959   0.00306  -0.0862   0.6517   1.0000
   1.400   0.5884   0.00968   0.00307  -0.0859   0.6414   1.0000
   1.500   0.5985   0.00979   0.00308  -0.0856   0.6312   1.0000
   1.600   0.6086   0.00988   0.00311  -0.0854   0.6206   1.0000
   1.700   0.6187   0.00999   0.00314  -0.0851   0.6110   1.0000
   1.800   0.6288   0.01010   0.00317  -0.0849   0.6018   1.0000
   1.900   0.6390   0.01020   0.00321  -0.0847   0.5925   1.0000
   2.000   0.6492   0.01033   0.00324  -0.0845   0.5847   1.0000
   2.100   0.6595   0.01043   0.00330  -0.0843   0.5761   1.0000
   2.200   0.6697   0.01055   0.00334  -0.0841   0.5691   1.0000
   2.300   0.6800   0.01065   0.00340  -0.0839   0.5615   1.0000
   2.400   0.6903   0.01079   0.00345  -0.0837   0.5555   1.0000
   2.500   0.7007   0.01088   0.00352  -0.0836   0.5484   1.0000
   2.600   0.7111   0.01101   0.00359  -0.0834   0.5427   1.0000
   2.700   0.7215   0.01112   0.00367  -0.0833   0.5368   1.0000
   2.800   0.7320   0.01123   0.00374  -0.0832   0.5313   1.0000
   2.900   0.7424   0.01137   0.00380  -0.0831   0.5269   1.0000
   3.000   0.7530   0.01147   0.00389  -0.0830   0.5217   1.0000
   3.100   0.7636   0.01158   0.00398  -0.0829   0.5170   1.0000
   3.200   0.7741   0.01171   0.00405  -0.0828   0.5130   1.0000
   3.300   0.7847   0.01183   0.00414  -0.0827   0.5088   1.0000
   3.400   0.7953   0.01193   0.00424  -0.0826   0.5044   1.0000
   3.500   0.8058   0.01204   0.00434  -0.0825   0.5006   1.0000
   3.600   0.8165   0.01219   0.00443  -0.0824   0.4974   1.0000
   3.700   0.8271   0.01230   0.00454  -0.0823   0.4937   1.0000
   3.800   0.8377   0.01240   0.00465  -0.0823   0.4901   1.0000
   3.900   0.8484   0.01251   0.00475  -0.0822   0.4867   1.0000
   4.000   0.8590   0.01265   0.00485  -0.0821   0.4838   1.0000
   4.100   0.8697   0.01279   0.00496  -0.0821   0.4809   1.0000
   4.200   0.8803   0.01289   0.00508  -0.0820   0.4776   1.0000
   4.300   0.8910   0.01300   0.00520  -0.0819   0.4744   1.0000
   4.400   0.9016   0.01312   0.00533  -0.0819   0.4716   1.0000
   4.500   0.9123   0.01326   0.00544  -0.0818   0.4690   1.0000
   4.600   0.9231   0.01342   0.00557  -0.0818   0.4665   1.0000
   4.700   0.9336   0.01351   0.00572  -0.0817   0.4635   1.0000
   4.800   0.9442   0.01363   0.00585  -0.0816   0.4606   1.0000
   4.900   0.9548   0.01375   0.00598  -0.0815   0.4578   1.0000
   5.000   0.9655   0.01388   0.00610  -0.0815   0.4554   1.0000
