  
       XFOIL         Version 6.94
  
 Calculated polar for: NACA 4309                                       
  
 1 1 Reynolds number fixed          Mach number fixed         
  
 xtrf =   1.000 (top)        1.000 (bottom)  
 Mach =   0.000     Re =     0.265 e 6     Ncrit =   9.000
  
  alpha     CL        CD       CDp       CM    Top_Xtr Bot_Xtr
 ------- -------- --------- --------- -------- ------- -------
  -7.000  -0.3754   0.08226   0.07957  -0.0259  1.0000  0.0330
  -6.750  -0.3812   0.08044   0.07779  -0.0244  1.0000  0.0336
  -6.500  -0.3855   0.07836   0.07575  -0.0237  0.9999  0.0344
  -6.250  -0.3491   0.07270   0.07003  -0.0343  0.9949  0.0369
  -5.750  -0.2471   0.05926   0.05609  -0.0634  0.9823  0.0407
  -5.500  -0.2307   0.05207   0.04891  -0.0673  0.9772  0.0425
  -5.000  -0.1647   0.04524   0.04190  -0.0756  0.9683  0.0472
  -6.000  -0.2898   0.06526   0.06232  -0.0541  0.9871  0.0405
  -5.500  -0.2307   0.05207   0.04891  -0.0673  0.9772  0.0425
  -5.000  -0.1647   0.04524   0.04190  -0.0756  0.9683  0.0472
  -4.500  -0.0909   0.03542   0.03142  -0.0852  0.9575  0.0557
  -4.000  -0.0129   0.02960   0.02483  -0.0916  0.9503  0.0686
  -3.500   0.0501   0.01690   0.01051  -0.0925  0.9376  0.0423
  -3.000   0.1129   0.01474   0.00810  -0.0934  0.9229  0.0482
  -2.500   0.1718   0.01295   0.00607  -0.0933  0.9043  0.0579
  -2.000   0.2282   0.01175   0.00477  -0.0926  0.8824  0.0721
  -1.500   0.2813   0.01097   0.00396  -0.0914  0.8542  0.0950
  -1.000   0.3348   0.01033   0.00332  -0.0904  0.8230  0.1366
  -0.500   0.3875   0.00973   0.00290  -0.0895  0.7861  0.2306
   0.000   0.4437   0.00772   0.00270  -0.0888  0.7454  1.0000
   0.500   0.4952   0.00799   0.00253  -0.0875  0.6970  1.0000
   1.000   0.5460   0.00836   0.00249  -0.0862  0.6430  1.0000
   1.500   0.5967   0.00882   0.00256  -0.0850  0.5905  1.0000
   2.000   0.6477   0.00933   0.00274  -0.0840  0.5459  1.0000
   2.500   0.6996   0.00984   0.00299  -0.0833  0.5133  1.0000
   3.000   0.7521   0.01036   0.00333  -0.0827  0.4893  1.0000
   3.500   0.8052   0.01085   0.00371  -0.0823  0.4709  1.0000
   4.000   0.8584   0.01137   0.00414  -0.0820  0.4556  1.0000
   4.500   0.9117   0.01190   0.00464  -0.0816  0.4422  1.0000
   5.000   0.9650   0.01238   0.00519  -0.0813  0.4299  1.0000
   5.500   1.0180   0.01296   0.00584  -0.0810  0.4184  1.0000
   6.000   1.0709   0.01361   0.00649  -0.0807  0.4066  1.0000
   6.500   1.1194   0.01385   0.00688  -0.0795  0.3817  1.0000
   7.000   1.1678   0.01426   0.00732  -0.0783  0.3581  1.0000
   7.500   1.2161   0.01464   0.00790  -0.0772  0.3334  1.0000
   8.000   1.2626   0.01504   0.00844  -0.0757  0.2954  1.0000
   8.500   1.2905   0.01716   0.00982  -0.0720  0.1501  1.0000
   9.000   1.3019   0.02113   0.01308  -0.0662  0.0518  1.0000
   9.500   1.3218   0.02374   0.01582  -0.0613  0.0395  1.0000
  10.000   1.3320   0.02643   0.01872  -0.0551  0.0339  1.0000
  10.500   1.3409   0.02940   0.02186  -0.0499  0.0298  1.0000
  11.000   1.3358   0.03408   0.02672  -0.0442  0.0274  1.0000
  11.500   1.3477   0.03772   0.03061  -0.0408  0.0256  1.0000
  12.000   1.3581   0.04171   0.03482  -0.0380  0.0235  1.0000
  -7.000  -0.2667   0.06268   0.06020  -0.0312  0.9945  0.0383
  -6.900  -0.2650   0.06071   0.05824  -0.0342  0.9919  0.0390
  -6.800  -0.2623   0.05870   0.05622  -0.0387  0.9879  0.0396
  -6.700  -0.2541   0.05617   0.05366  -0.0458  0.9846  0.0402
  -6.600  -0.2444   0.05357   0.05102  -0.0511  0.9826  0.0404
  -6.500  -0.2339   0.05100   0.04841  -0.0552  0.9812  0.0405
  -6.400  -0.2267   0.04883   0.04620  -0.0579  0.9783  0.0406
  -6.300  -0.2193   0.04662   0.04394  -0.0604  0.9752  0.0407
  -6.200  -0.2105   0.04423   0.04148  -0.0630  0.9728  0.0407
  -6.100  -0.3189   0.06823   0.06547  -0.0448  0.9907  0.0393
  -6.000  -0.2898   0.06526   0.06232  -0.0541  0.9871  0.0405
  -5.900  -0.2721   0.06290   0.05987  -0.0581  0.9848  0.0406
  -5.800  -0.2554   0.06048   0.05736  -0.0617  0.9831  0.0407
  -5.700  -0.2497   0.05500   0.05184  -0.0655  0.9816  0.0415
  -5.600  -0.2393   0.05330   0.05014  -0.0667  0.9802  0.0420
  -5.500  -0.2307   0.05207   0.04891  -0.0673  0.9772  0.0425
  -5.400  -0.2200   0.05088   0.04771  -0.0684  0.9748  0.0430
  -5.300  -0.2080   0.04966   0.04647  -0.0697  0.9728  0.0437
  -5.200  -0.1948   0.04834   0.04512  -0.0713  0.9711  0.0445
  -5.100  -0.1804   0.04689   0.04361  -0.0733  0.9696  0.0457
  -5.000  -0.1647   0.04525   0.04190  -0.0756  0.9683  0.0472
  -4.900  -0.1467   0.04337   0.03991  -0.0783  0.9671  0.0496
  -4.800  -0.1172   0.04250   0.03860  -0.0818  0.9660  0.0529
  -4.700  -0.1062   0.04110   0.03707  -0.0825  0.9624  0.0531
  -4.600  -0.1025   0.03619   0.03214  -0.0844  0.9593  0.0547
  -4.500  -0.0909   0.03542   0.03142  -0.0852  0.9575  0.0557
  -4.400  -0.0780   0.03489   0.03093  -0.0861  0.9559  0.0572
  -4.300  -0.0637   0.03409   0.03008  -0.0873  0.9545  0.0592
  -4.200  -0.0482   0.03293   0.02883  -0.0886  0.9531  0.0614
  -4.100  -0.0312   0.03161   0.02733  -0.0900  0.9518  0.0643
  -4.000  -0.0089   0.03245   0.02774  -0.0908  0.9504  0.0675
  -3.900   0.0016   0.02045   0.01474  -0.0919  0.9495  0.0390
  -3.800   0.0111   0.01957   0.01369  -0.0915  0.9452  0.0393
  -3.700   0.0235   0.01878   0.01273  -0.0916  0.9421  0.0397
  -3.600   0.0375   0.01866   0.01249  -0.0920  0.9395  0.0406
  -3.500   0.0501   0.01690   0.01051  -0.0925  0.9376  0.0423
  -3.400   0.0640   0.01638   0.00996  -0.0931  0.9356  0.0437
  -3.300   0.0783   0.01591   0.00944  -0.0937  0.9338  0.0448
  -3.200   0.0908   0.01548   0.00894  -0.0938  0.9310  0.0458
  -3.100   0.1008   0.01512   0.00854  -0.0934  0.9263  0.0469
  -3.000   0.1129   0.01474   0.00810  -0.0934  0.9229  0.0482
  -2.900   0.1258   0.01436   0.00765  -0.0936  0.9199  0.0497
  -2.800   0.1391   0.01411   0.00732  -0.0938  0.9173  0.0515
  -2.700   0.1508   0.01409   0.00724  -0.0937  0.9134  0.0530
  -2.600   0.1604   0.01324   0.00636  -0.0934  0.9085  0.0557
  -2.500   0.1718   0.01295   0.00607  -0.0933  0.9043  0.0579
  -2.400   0.1840   0.01271   0.00582  -0.0933  0.9008  0.0602
  -2.300   0.1951   0.01250   0.00558  -0.0931  0.8964  0.0626
  -2.200   0.2055   0.01232   0.00537  -0.0928  0.8907  0.0651
  -2.100   0.2170   0.01226   0.00525  -0.0927  0.8861  0.0674
  -2.000   0.2282   0.01175   0.00477  -0.0926  0.8824  0.0721
  -1.900   0.2382   0.01162   0.00466  -0.0923  0.8761  0.0758
  -1.800   0.2490   0.01148   0.00448  -0.0920  0.8707  0.0797
  -1.700   0.2606   0.01137   0.00431  -0.0919  0.8663  0.0831
  -1.600   0.2706   0.01106   0.00406  -0.0916  0.8602  0.0890
  -1.500   0.2813   0.01097   0.00396  -0.0914  0.8542  0.0950
  -1.400   0.2925   0.01085   0.00379  -0.0913  0.8492  0.1010
  -1.300   0.3028   0.01067   0.00366  -0.0910  0.8425  0.1085
  -1.200   0.3136   0.01060   0.00354  -0.0908  0.8362  0.1160
  -1.100   0.3244   0.01043   0.00341  -0.0906  0.8305  0.1259
  -1.000   0.3348   0.01033   0.00332  -0.0904  0.8230  0.1366
  -0.900   0.3456   0.01023   0.00321  -0.0902  0.8165  0.1493
  -0.800   0.3561   0.01010   0.00313  -0.0900  0.8091  0.1634
  -0.700   0.3666   0.00999   0.00304  -0.0898  0.8016  0.1803
  -0.600   0.3772   0.00988   0.00297  -0.0896  0.7943  0.2017
  -0.500   0.3875   0.00973   0.00290  -0.0895  0.7861  0.2306
  -0.400   0.3977   0.00947   0.00280  -0.0893  0.7785  0.2869
  -0.300   0.4007   0.00824   0.00288  -0.0880  0.7707  0.6979
  -0.100   0.4333   0.00768   0.00275  -0.0891  0.7538  1.0000
   0.000   0.4437   0.00772   0.00270  -0.0888  0.7454  1.0000
   0.100   0.4540   0.00776   0.00266  -0.0886  0.7358  1.0000
   0.200   0.4644   0.00781   0.00262  -0.0883  0.7267  1.0000
   0.300   0.4747   0.00786   0.00259  -0.0880  0.7169  1.0000
   0.400   0.4850   0.00792   0.00256  -0.0878  0.7070  1.0000
   0.500   0.4952   0.00799   0.00253  -0.0875  0.6970  1.0000
   0.600   0.5054   0.00804   0.00252  -0.0873  0.6861  1.0000
   0.700   0.5156   0.00812   0.00251  -0.0870  0.6757  1.0000
   0.800   0.5257   0.00819   0.00250  -0.0867  0.6647  1.0000
   0.900   0.5359   0.00827   0.00249  -0.0865  0.6536  1.0000
   1.000   0.5460   0.00836   0.00249  -0.0862  0.6430  1.0000
   1.100   0.5561   0.00844   0.00250  -0.0860  0.6318  1.0000
   1.200   0.5663   0.00853   0.00251  -0.0857  0.6211  1.0000
   1.400   0.5866   0.00871   0.00254  -0.0853  0.6003  1.0000
   1.500   0.5967   0.00882   0.00256  -0.0850  0.5905  1.0000
   1.600   0.6068   0.00892   0.00259  -0.0848  0.5806  1.0000
   1.700   0.6171   0.00902   0.00262  -0.0846  0.5712  1.0000
   1.800   0.6272   0.00913   0.00265  -0.0844  0.5624  1.0000
   1.900   0.6375   0.00922   0.00269  -0.0842  0.5538  1.0000
   2.000   0.6477   0.00933   0.00274  -0.0840  0.5459  1.0000
   2.100   0.6580   0.00943   0.00279  -0.0839  0.5385  1.0000
   2.200   0.6684   0.00953   0.00283  -0.0837  0.5314  1.0000
   2.300   0.6786   0.00966   0.00288  -0.0835  0.5254  1.0000
   2.400   0.6892   0.00973   0.00294  -0.0834  0.5190  1.0000
   2.500   0.6996   0.00984   0.00299  -0.0833  0.5133  1.0000
   2.600   0.7099   0.00996   0.00305  -0.0832  0.5084  1.0000
   2.700   0.7206   0.01004   0.00312  -0.0831  0.5029  1.0000
   2.800   0.7311   0.01014   0.00318  -0.0830  0.4979  1.0000
   2.900   0.7415   0.01026   0.00324  -0.0828  0.4936  1.0000
   3.000   0.7521   0.01036   0.00333  -0.0827  0.4893  1.0000
   3.100   0.7628   0.01044   0.00340  -0.0827  0.4849  1.0000
   3.200   0.7734   0.01053   0.00347  -0.0826  0.4811  1.0000
   3.300   0.7839   0.01065   0.00354  -0.0825  0.4777  1.0000
   3.400   0.7944   0.01078   0.00362  -0.0824  0.4745  1.0000
   3.500   0.8052   0.01085   0.00371  -0.0823  0.4709  1.0000
   3.600   0.8159   0.01093   0.00379  -0.0823  0.4673  1.0000
   3.700   0.8265   0.01103   0.00387  -0.0822  0.4641  1.0000
   3.800   0.8370   0.01115   0.00395  -0.0821  0.4611  1.0000
   3.900   0.8476   0.01129   0.00404  -0.0820  0.4584  1.0000
   4.000   0.8584   0.01137   0.00414  -0.0820  0.4556  1.0000
   4.100   0.8691   0.01145   0.00426  -0.0819  0.4527  1.0000
   4.200   0.8798   0.01154   0.00435  -0.0818  0.4499  1.0000
   4.300   0.8904   0.01164   0.00444  -0.0818  0.4472  1.0000
   4.400   0.9010   0.01176   0.00454  -0.0817  0.4446  1.0000
   4.500   0.9117   0.01190   0.00464  -0.0816  0.4422  1.0000
   4.600   0.9224   0.01202   0.00476  -0.0816  0.4399  1.0000
   4.700   0.9330   0.01210   0.00487  -0.0815  0.4374  1.0000
   4.800   0.9437   0.01218   0.00498  -0.0815  0.4348  1.0000
   4.900   0.9544   0.01228   0.00509  -0.0814  0.4323  1.0000
   5.000   0.9650   0.01238   0.00519  -0.0813  0.4299  1.0000
   5.100   0.9756   0.01250   0.00532  -0.0813  0.4276  1.0000
   5.200   0.9862   0.01266   0.00544  -0.0812  0.4254  1.0000
   5.300   0.9969   0.01279   0.00558  -0.0812  0.4232  1.0000
   5.400   1.0075   0.01287   0.00571  -0.0811  0.4209  1.0000
   5.500   1.0180   0.01296   0.00584  -0.0810  0.4184  1.0000
   5.600   1.0286   0.01306   0.00596  -0.0809  0.4159  1.0000
   5.700   1.0391   0.01316   0.00607  -0.0808  0.4135  1.0000
   5.800   1.0497   0.01328   0.00619  -0.0808  0.4112  1.0000
   5.900   1.0603   0.01343   0.00633  -0.0807  0.4090  1.0000
   6.000   1.0709   0.01361   0.00649  -0.0807  0.4066  1.0000
   6.100   1.0811   0.01366   0.00663  -0.0805  0.4037  1.0000
   6.200   1.0910   0.01371   0.00672  -0.0803  0.3995  1.0000
   6.300   1.1006   0.01376   0.00676  -0.0801  0.3942  1.0000
   6.400   1.1101   0.01387   0.00684  -0.0798  0.3883  1.0000
   6.500   1.1194   0.01385   0.00688  -0.0795  0.3817  1.0000
   6.600   1.1288   0.01393   0.00692  -0.0792  0.3759  1.0000
   6.700   1.1385   0.01403   0.00703  -0.0790  0.3711  1.0000
   6.800   1.1484   0.01407   0.00713  -0.0787  0.3665  1.0000
   6.900   1.1582   0.01414   0.00723  -0.0785  0.3622  1.0000
   7.000   1.1678   0.01426   0.00733  -0.0783  0.3581  1.0000
   7.100   1.1776   0.01435   0.00745  -0.0781  0.3538  1.0000
   7.200   1.1874   0.01439   0.00758  -0.0779  0.3487  1.0000
   7.300   1.1969   0.01447   0.00767  -0.0776  0.3439  1.0000
   7.400   1.2062   0.01462   0.00778  -0.0774  0.3392  1.0000
   7.500   1.2161   0.01464   0.00790  -0.0772  0.3334  1.0000
   7.600   1.2254   0.01471   0.00800  -0.0769  0.3273  1.0000
   7.700   1.2345   0.01484   0.00811  -0.0766  0.3214  1.0000
   7.800   1.2443   0.01487   0.00822  -0.0763  0.3139  1.0000
   7.900   1.2529   0.01500   0.00833  -0.0760  0.3061  1.0000
   8.000   1.2626   0.01504   0.00844  -0.0757  0.2954  1.0000
   8.100   1.2714   0.01515   0.00854  -0.0754  0.2826  1.0000
   8.200   1.2795   0.01532   0.00867  -0.0749  0.2649  1.0000
   8.300   1.2861   0.01562   0.00886  -0.0743  0.2397  1.0000
   8.400   1.2902   0.01619   0.00920  -0.0734  0.2008  1.0000
   8.500   1.2905   0.01716   0.00982  -0.0720  0.1501  1.0000
   8.700   1.2905   0.01925   0.01134  -0.0692  0.0773  1.0000
   8.800   1.2934   0.01999   0.01198  -0.0681  0.0643  1.0000
   8.900   1.2979   0.02055   0.01253  -0.0672  0.0569  1.0000
   9.000   1.3019   0.02113   0.01308  -0.0662  0.0518  1.0000
   9.100   1.3049   0.02178   0.01374  -0.0651  0.0478  1.0000
   9.200   1.3108   0.02217   0.01418  -0.0643  0.0454  1.0000
   9.300   1.3158   0.02261   0.01466  -0.0635  0.0432  1.0000
   9.400   1.3197   0.02312   0.01518  -0.0625  0.0412  1.0000
   9.500   1.3218   0.02374   0.01582  -0.0613  0.0395  1.0000
   9.600   1.3203   0.02450   0.01661  -0.0595  0.0379  1.0000
   9.700   1.3204   0.02515   0.01730  -0.0580  0.0369  1.0000
   9.800   1.3250   0.02553   0.01773  -0.0571  0.0360  1.0000
   9.900   1.3288   0.02596   0.01821  -0.0561  0.0350  1.0000
  10.000   1.3320   0.02643   0.01872  -0.0551  0.0339  1.0000
  10.100   1.3350   0.02692   0.01925  -0.0541  0.0329  1.0000
  10.200   1.3376   0.02745   0.01983  -0.0531  0.0320  1.0000
  10.300   1.3396   0.02802   0.02042  -0.0521  0.0311  1.0000
  10.400   1.3409   0.02865   0.02109  -0.0510  0.0304  1.0000
  10.500   1.3409   0.02940   0.02186  -0.0499  0.0298  1.0000
  10.600   1.3396   0.03028   0.02276  -0.0486  0.0292  1.0000
  10.700   1.3373   0.03128   0.02380  -0.0473  0.0286  1.0000
  10.800   1.3338   0.03245   0.02500  -0.0460  0.0281  1.0000
  10.900   1.3325   0.03348   0.02607  -0.0448  0.0277  1.0000
  11.000   1.3358   0.03408   0.02672  -0.0442  0.0274  1.0000
  11.100   1.3386   0.03474   0.02743  -0.0435  0.0271  1.0000
  11.200   1.3411   0.03544   0.02819  -0.0428  0.0267  1.0000
  11.300   1.3434   0.03618   0.02898  -0.0421  0.0264  1.0000
  11.400   1.3456   0.03694   0.02979  -0.0414  0.0260  1.0000
  11.500   1.3477   0.03772   0.03061  -0.0408  0.0256  1.0000
  11.600   1.3499   0.03850   0.03144  -0.0402  0.0252  1.0000
  11.700   1.3521   0.03929   0.03228  -0.0396  0.0248  1.0000
  11.800   1.3542   0.04009   0.03312  -0.0390  0.0244  1.0000
  11.900   1.3562   0.04089   0.03397  -0.0385  0.0240  1.0000
  12.000   1.3581   0.04171   0.03482  -0.0380  0.0235  1.0000
